MODEL 1
REMARK VINA RESULT:      -8.2      0.000      0.000
REMARK  7 active torsions:
REMARK  status: ('A' for Active; 'I' for Inactive)
REMARK    1  A    between atoms: N_1  and  C_5 
REMARK    2  A    between atoms: N_1  and  C_6 
REMARK    3  A    between atoms: C_9  and  N_23 
REMARK    4  A    between atoms: C_10  and  N_23 
REMARK    5  A    between atoms: C_15  and  O_36 
REMARK    6  A    between atoms: O_18  and  C_19 
REMARK    7  A    between atoms: C_34  and  O_35 
ROOT
HETATM    1  N   UNK     0       4.713  -4.490  10.733  0.00  0.00    -0.199 N 
HETATM    2  HN  UNK     0       5.533  -4.612  11.327  1.00  0.00     0.183 HD
ENDROOT
BRANCH   1   3
HETATM    3  C   UNK     0       4.742  -3.472   9.578  0.00  0.00     0.016 A 
HETATM    4  C   UNK     0       3.437  -3.093   8.853  0.00  0.00     0.120 A 
HETATM    5  C   UNK     0       3.466  -2.075   7.698  0.00  0.00     0.086 A 
HETATM    6  C   UNK     0       4.800  -1.437   7.268  0.00  0.00     0.127 A 
HETATM    7  C   UNK     0       6.105  -1.816   7.992  0.00  0.00     0.086 A 
HETATM    8  C   UNK     0       6.076  -2.834   9.148  0.00  0.00     0.120 A 
BRANCH   5   9
HETATM    9  O   UNK     0       2.162  -1.695   6.973  0.00  0.00    -0.357 OA
HETATM   10  C   UNK     0       1.211  -0.655   7.595  0.00  0.00     0.209 C 
ENDBRANCH   5   9
BRANCH   6  11
HETATM   11  O   UNK     0       4.829  -0.419   6.112  0.00  0.00    -0.351 OA
HETATM   12  C   UNK     0       4.560   1.072   6.392  0.00  0.00     0.210 C 
ENDBRANCH   6  11
BRANCH   7  13
HETATM   13  O   UNK     0       7.438  -1.178   7.562  0.00  0.00    -0.357 OA
HETATM   14  C   UNK     0       7.961   0.076   8.286  0.00  0.00     0.209 C 
ENDBRANCH   7  13
ENDBRANCH   1   3
BRANCH   1  15
HETATM   15  C   UNK     0       3.444  -5.325  10.992  0.00  0.00     0.679 A 
HETATM   16  N   UNK     0       2.661  -5.148  12.306  0.00  0.00    -0.180 N 
HETATM   17  C   UNK     0       1.393  -5.982  12.565  0.00  0.00     0.100 A 
HETATM   18  HN  UNK     0       2.982  -4.478  13.005  1.00  0.00     0.185 HD
HETATM   19  C   UNK     0       0.908  -6.994  11.510  0.00  0.00     0.097 A 
HETATM   20  C   UNK     0       1.692  -7.171  10.197  0.00  0.00     0.145 A 
HETATM   21  N   UNK     0       2.960  -6.337   9.938  0.00  0.00    -0.226 N 
HETATM   22  HN  UNK     0       3.479  -6.454   9.067  1.00  0.00     0.177 HD
BRANCH  17  23
HETATM   23  N   UNK     0       0.610  -5.804  13.879  0.00  0.00    -0.347 N 
HETATM   24  C   UNK     0      -0.440  -4.685  14.005  0.00  0.00     0.157 C 
BRANCH  23  25
HETATM   25  C   UNK     0       0.876  -6.747  15.068  0.00  0.00    -0.004 A 
HETATM   26  C   UNK     0       2.133  -7.638  15.078  0.00  0.00     0.111 A 
HETATM   27  C   UNK     0       2.398  -8.579  16.267  0.00  0.00     0.039 A 
HETATM   28  C   UNK     0       1.408  -8.631  17.445  0.00  0.00    -0.010 A 
HETATM   29  N   UNK     0       3.541  -9.570  16.561  0.00  0.00    -0.304 N 
HETATM   30  C   UNK     0       0.152  -7.741  17.435  0.00  0.00     0.048 A 
HETATM   31  C   UNK     0       1.939  -9.654  18.468  0.00  0.00     0.030 A 
HETATM   32  C   UNK     0      -0.114  -6.798  16.246  0.00  0.00     0.057 A 
HETATM   33  C   UNK     0       1.269 -10.030  19.802  0.00  0.00     0.070 C 
HETATM   34  N   UNK     0       3.256 -10.234  17.921  0.00  0.00    -0.304 N 
HETATM   35  HN  UNK     0       3.839 -10.935  18.379  1.00  0.00     0.186 HD
HETATM   36  HN  UNK     0       4.344  -9.754  15.960  1.00  0.00     0.186 HD
ENDBRANCH  23  25
ENDBRANCH  17  23
ENDBRANCH   1  15
TORSDOF 7
ENDMDL
MODEL 2
REMARK VINA RESULT:      -8.2      0.151      2.376
REMARK  7 active torsions:
REMARK  status: ('A' for Active; 'I' for Inactive)
REMARK    1  A    between atoms: N_1  and  C_5 
REMARK    2  A    between atoms: N_1  and  C_6 
REMARK    3  A    between atoms: C_9  and  N_23 
REMARK    4  A    between atoms: C_10  and  N_23 
REMARK    5  A    between atoms: C_15  and  O_36 
REMARK    6  A    between atoms: O_18  and  C_19 
REMARK    7  A    between atoms: C_34  and  O_35 
ROOT
HETATM    1  N   UNK     0       4.682  -4.443  10.709  0.00  0.00    -0.199 N 
HETATM    2  HN  UNK     0       5.508  -4.554  11.297  1.00  0.00     0.183 HD
ENDROOT
BRANCH   1   3
HETATM    3  C   UNK     0       4.690  -3.423   9.555  0.00  0.00     0.016 A 
HETATM    4  C   UNK     0       6.020  -2.810   9.078  0.00  0.00     0.120 A 
HETATM    5  C   UNK     0       6.027  -1.790   7.924  0.00  0.00     0.086 A 
HETATM    6  C   UNK     0       4.704  -1.383   7.247  0.00  0.00     0.127 A 
HETATM    7  C   UNK     0       3.374  -1.997   7.725  0.00  0.00     0.086 A 
HETATM    8  C   UNK     0       3.367  -3.017   8.878  0.00  0.00     0.120 A 
BRANCH   5   9
HETATM    9  O   UNK     0       7.356  -1.177   7.447  0.00  0.00    -0.357 OA
HETATM   10  C   UNK     0       7.971   0.014   8.206  0.00  0.00     0.209 C 
ENDBRANCH   5   9
BRANCH   6  11
HETATM   11  O   UNK     0       4.712  -0.364   6.094  0.00  0.00    -0.351 OA
HETATM   12  C   UNK     0       4.876   1.138   6.394  0.00  0.00     0.210 C 
ENDBRANCH   6  11
BRANCH   7  13
HETATM   13  O   UNK     0       2.053  -1.590   7.048  0.00  0.00    -0.357 OA
HETATM   14  C   UNK     0       1.497  -0.166   7.238  0.00  0.00     0.209 C 
ENDBRANCH   7  13
ENDBRANCH   1   3
BRANCH   1  15
HETATM   15  C   UNK     0       3.427  -5.296  10.975  0.00  0.00     0.679 A 
HETATM   16  N   UNK     0       2.644  -5.124  12.290  0.00  0.00    -0.180 N 
HETATM   17  C   UNK     0       1.390  -5.976  12.556  0.00  0.00     0.100 A 
HETATM   18  HN  UNK     0       2.957  -4.446  12.985  1.00  0.00     0.185 HD
HETATM   19  C   UNK     0       0.918  -7.000  11.507  0.00  0.00     0.097 A 
HETATM   20  C   UNK     0       1.701  -7.172  10.192  0.00  0.00     0.145 A 
HETATM   21  N   UNK     0       2.956  -6.320   9.926  0.00  0.00    -0.226 N 
HETATM   22  HN  UNK     0       3.474  -6.433   9.055  1.00  0.00     0.177 HD
BRANCH  17  23
HETATM   23  N   UNK     0       0.607  -5.804  13.871  0.00  0.00    -0.347 N 
HETATM   24  C   UNK     0      -0.447  -4.690  14.000  0.00  0.00     0.157 C 
BRANCH  23  25
HETATM   25  C   UNK     0       0.880  -6.747  15.058  0.00  0.00    -0.004 A 
HETATM   26  C   UNK     0       2.143  -7.628  15.068  0.00  0.00     0.111 A 
HETATM   27  C   UNK     0       2.415  -8.571  16.255  0.00  0.00     0.039 A 
HETATM   28  C   UNK     0       1.424  -8.632  17.432  0.00  0.00    -0.010 A 
HETATM   29  N   UNK     0       3.564  -9.554  16.548  0.00  0.00    -0.304 N 
HETATM   30  C   UNK     0       0.162  -7.751  17.423  0.00  0.00     0.048 A 
HETATM   31  C   UNK     0       1.961  -9.653  18.453  0.00  0.00     0.030 A 
HETATM   32  C   UNK     0      -0.111  -6.808  16.236  0.00  0.00     0.057 A 
HETATM   33  C   UNK     0       1.293 -10.037  19.786  0.00  0.00     0.070 C 
HETATM   34  N   UNK     0       3.283 -10.222  17.906  0.00  0.00    -0.304 N 
HETATM   35  HN  UNK     0       3.870 -10.920  18.364  1.00  0.00     0.186 HD
HETATM   36  HN  UNK     0       4.369  -9.730  15.947  1.00  0.00     0.186 HD
ENDBRANCH  23  25
ENDBRANCH  17  23
ENDBRANCH   1  15
TORSDOF 7
ENDMDL
MODEL 3
REMARK VINA RESULT:      -8.1      8.159     12.503
REMARK  7 active torsions:
REMARK  status: ('A' for Active; 'I' for Inactive)
REMARK    1  A    between atoms: N_1  and  C_5 
REMARK    2  A    between atoms: N_1  and  C_6 
REMARK    3  A    between atoms: C_9  and  N_23 
REMARK    4  A    between atoms: C_10  and  N_23 
REMARK    5  A    between atoms: C_15  and  O_36 
REMARK    6  A    between atoms: O_18  and  C_19 
REMARK    7  A    between atoms: C_34  and  O_35 
ROOT
HETATM    1  N   UNK     0      -1.276  -3.768  23.880  0.00  0.00    -0.199 N 
HETATM    2  HN  UNK     0      -0.502  -3.424  24.448  1.00  0.00     0.183 HD
ENDROOT
BRANCH   1   3
HETATM    3  C   UNK     0      -2.113  -2.783  23.042  0.00  0.00     0.016 A 
HETATM    4  C   UNK     0      -3.596  -3.085  22.755  0.00  0.00     0.120 A 
HETATM    5  C   UNK     0      -4.433  -2.100  21.917  0.00  0.00     0.086 A 
HETATM    6  C   UNK     0      -3.787  -0.814  21.367  0.00  0.00     0.127 A 
HETATM    7  C   UNK     0      -2.305  -0.513  21.655  0.00  0.00     0.086 A 
HETATM    8  C   UNK     0      -1.467  -1.498  22.492  0.00  0.00     0.120 A 
BRANCH   5   9
HETATM    9  O   UNK     0      -5.915  -2.401  21.630  0.00  0.00    -0.357 OA
HETATM   10  C   UNK     0      -7.016  -1.705  22.452  0.00  0.00     0.209 C 
ENDBRANCH   5   9
BRANCH   6  11
HETATM   11  O   UNK     0      -4.625   0.170  20.530  0.00  0.00    -0.351 OA
HETATM   12  C   UNK     0      -5.302   1.375  21.208  0.00  0.00     0.210 C 
ENDBRANCH   6  11
BRANCH   7  13
HETATM   13  O   UNK     0      -1.660   0.772  21.105  0.00  0.00    -0.357 OA
HETATM   14  C   UNK     0      -0.666   1.567  21.973  0.00  0.00     0.209 C 
ENDBRANCH   7  13
ENDBRANCH   1   3
BRANCH   1  15
HETATM   15  C   UNK     0      -1.608  -5.272  23.860  0.00  0.00     0.679 A 
HETATM   16  N   UNK     0      -0.640  -6.266  23.192  0.00  0.00    -0.180 N 
HETATM   17  C   UNK     0      -0.972  -7.769  23.172  0.00  0.00     0.100 A 
HETATM   18  HN  UNK     0       0.221  -5.928  22.762  1.00  0.00     0.185 HD
HETATM   19  C   UNK     0      -2.272  -8.279  23.820  0.00  0.00     0.097 A 
HETATM   20  C   UNK     0      -3.241  -7.285  24.489  0.00  0.00     0.145 A 
HETATM   21  N   UNK     0      -2.908  -5.781  24.509  0.00  0.00    -0.226 N 
HETATM   22  HN  UNK     0      -3.550  -5.123  24.951  1.00  0.00     0.177 HD
BRANCH  17  23
HETATM   23  N   UNK     0      -0.004  -8.762  22.503  0.00  0.00    -0.347 N 
HETATM   24  C   UNK     0       0.679  -9.856  23.344  0.00  0.00     0.157 C 
BRANCH  23  25
HETATM   25  C   UNK     0       0.281  -8.662  20.993  0.00  0.00    -0.004 A 
HETATM   26  C   UNK     0       1.483  -9.409  20.384  0.00  0.00     0.111 A 
HETATM   27  C   UNK     0       1.767  -9.309  18.875  0.00  0.00     0.039 A 
HETATM   28  C   UNK     0       0.851  -8.461  17.973  0.00  0.00    -0.010 A 
HETATM   29  N   UNK     0       2.867  -9.926  17.990  0.00  0.00    -0.304 N 
HETATM   30  C   UNK     0      -0.350  -7.714  18.581  0.00  0.00     0.048 A 
HETATM   31  C   UNK     0       1.384  -8.554  16.531  0.00  0.00     0.030 A 
HETATM   32  C   UNK     0      -0.635  -7.814  20.091  0.00  0.00     0.057 A 
HETATM   33  C   UNK     0       0.778  -7.864  15.295  0.00  0.00     0.070 C 
HETATM   34  N   UNK     0       2.629  -9.460  16.542  0.00  0.00    -0.304 N 
HETATM   35  HN  UNK     0       3.198  -9.707  15.731  1.00  0.00     0.186 HD
HETATM   36  HN  UNK     0       3.619 -10.537  18.308  1.00  0.00     0.186 HD
ENDBRANCH  23  25
ENDBRANCH  17  23
ENDBRANCH   1  15
TORSDOF 7
ENDMDL
MODEL 4
REMARK VINA RESULT:      -8.1      8.130     12.713
REMARK  7 active torsions:
REMARK  status: ('A' for Active; 'I' for Inactive)
REMARK    1  A    between atoms: N_1  and  C_5 
REMARK    2  A    between atoms: N_1  and  C_6 
REMARK    3  A    between atoms: C_9  and  N_23 
REMARK    4  A    between atoms: C_10  and  N_23 
REMARK    5  A    between atoms: C_15  and  O_36 
REMARK    6  A    between atoms: O_18  and  C_19 
REMARK    7  A    between atoms: C_34  and  O_35 
ROOT
HETATM    1  N   UNK     0      -1.392  -3.828  23.985  0.00  0.00    -0.199 N 
HETATM    2  HN  UNK     0      -0.667  -3.479  24.611  1.00  0.00     0.183 HD
ENDROOT
BRANCH   1   3
HETATM    3  C   UNK     0      -2.185  -2.846  23.102  0.00  0.00     0.016 A 
HETATM    4  C   UNK     0      -1.480  -1.622  22.487  0.00  0.00     0.120 A 
HETATM    5  C   UNK     0      -2.274  -0.641  21.604  0.00  0.00     0.086 A 
HETATM    6  C   UNK     0      -3.771  -0.883  21.337  0.00  0.00     0.127 A 
HETATM    7  C   UNK     0      -4.475  -2.106  21.953  0.00  0.00     0.086 A 
HETATM    8  C   UNK     0      -3.682  -3.088  22.835  0.00  0.00     0.120 A 
BRANCH   5   9
HETATM    9  O   UNK     0      -1.570   0.583  20.989  0.00  0.00    -0.357 OA
HETATM   10  C   UNK     0      -0.679   1.481  21.867  0.00  0.00     0.209 C 
ENDBRANCH   5   9
BRANCH   6  11
HETATM   11  O   UNK     0      -4.564   0.099  20.455  0.00  0.00    -0.351 OA
HETATM   12  C   UNK     0      -5.263   1.315  21.091  0.00  0.00     0.210 C 
ENDBRANCH   6  11
BRANCH   7  13
HETATM   13  O   UNK     0      -5.972  -2.348  21.685  0.00  0.00    -0.357 OA
HETATM   14  C   UNK     0      -7.033  -1.556  22.474  0.00  0.00     0.209 C 
ENDBRANCH   7  13
ENDBRANCH   1   3
BRANCH   1  15
HETATM   15  C   UNK     0      -1.694  -5.337  23.922  0.00  0.00     0.679 A 
HETATM   16  N   UNK     0      -0.692  -6.295  23.253  0.00  0.00    -0.180 N 
HETATM   17  C   UNK     0      -0.993  -7.803  23.189  0.00  0.00     0.100 A 
HETATM   18  HN  UNK     0       0.172  -5.931  22.851  1.00  0.00     0.185 HD
HETATM   19  C   UNK     0      -2.298  -8.354  23.795  0.00  0.00     0.097 A 
HETATM   20  C   UNK     0      -3.301  -7.395  24.464  0.00  0.00     0.145 A 
HETATM   21  N   UNK     0      -2.998  -5.886  24.527  0.00  0.00    -0.226 N 
HETATM   22  HN  UNK     0      -3.662  -5.251  24.970  1.00  0.00     0.177 HD
BRANCH  17  23
HETATM   23  N   UNK     0       0.009  -8.762  22.520  0.00  0.00    -0.347 N 
HETATM   24  C   UNK     0       0.735  -9.827  23.362  0.00  0.00     0.157 C 
BRANCH  23  25
HETATM   25  C   UNK     0       0.286  -8.655  21.009  0.00  0.00    -0.004 A 
HETATM   26  C   UNK     0       1.495  -9.384  20.393  0.00  0.00     0.111 A 
HETATM   27  C   UNK     0       1.771  -9.277  18.882  0.00  0.00     0.039 A 
HETATM   28  C   UNK     0       0.838  -8.441  17.987  0.00  0.00    -0.010 A 
HETATM   29  N   UNK     0       2.875  -9.877  17.991  0.00  0.00    -0.304 N 
HETATM   30  C   UNK     0      -0.371  -7.712  18.601  0.00  0.00     0.048 A 
HETATM   31  C   UNK     0       1.365  -8.524  16.542  0.00  0.00     0.030 A 
HETATM   32  C   UNK     0      -0.647  -7.819  20.113  0.00  0.00     0.057 A 
HETATM   33  C   UNK     0       0.744  -7.840  15.310  0.00  0.00     0.070 C 
HETATM   34  N   UNK     0       2.624  -9.411  16.545  0.00  0.00    -0.304 N 
HETATM   35  HN  UNK     0       3.192  -9.649  15.732  1.00  0.00     0.186 HD
HETATM   36  HN  UNK     0       3.638 -10.476  18.305  1.00  0.00     0.186 HD
ENDBRANCH  23  25
ENDBRANCH  17  23
ENDBRANCH   1  15
TORSDOF 7
ENDMDL
MODEL 5
REMARK VINA RESULT:      -7.7      8.182     12.957
REMARK  7 active torsions:
REMARK  status: ('A' for Active; 'I' for Inactive)
REMARK    1  A    between atoms: N_1  and  C_5 
REMARK    2  A    between atoms: N_1  and  C_6 
REMARK    3  A    between atoms: C_9  and  N_23 
REMARK    4  A    between atoms: C_10  and  N_23 
REMARK    5  A    between atoms: C_15  and  O_36 
REMARK    6  A    between atoms: O_18  and  C_19 
REMARK    7  A    between atoms: C_34  and  O_35 
ROOT
HETATM    1  N   UNK     0      -1.343  -4.174  24.290  0.00  0.00    -0.199 N 
HETATM    2  HN  UNK     0      -0.530  -3.861  24.819  1.00  0.00     0.183 HD
ENDROOT
BRANCH   1   3
HETATM    3  C   UNK     0      -2.281  -3.140  23.639  0.00  0.00     0.016 A 
HETATM    4  C   UNK     0      -3.126  -2.203  24.523  0.00  0.00     0.120 A 
HETATM    5  C   UNK     0      -4.065  -1.170  23.872  0.00  0.00     0.086 A 
HETATM    6  C   UNK     0      -4.158  -1.074  22.337  0.00  0.00     0.127 A 
HETATM    7  C   UNK     0      -3.313  -2.011  21.454  0.00  0.00     0.086 A 
HETATM    8  C   UNK     0      -2.375  -3.044  22.104  0.00  0.00     0.120 A 
BRANCH   5   9
HETATM    9  O   UNK     0      -4.909  -0.233  24.755  0.00  0.00    -0.357 OA
HETATM   10  C   UNK     0      -4.359   1.148  25.157  0.00  0.00     0.209 C 
ENDBRANCH   5   9
BRANCH   6  11
HETATM   11  O   UNK     0      -5.096  -0.040  21.687  0.00  0.00    -0.351 OA
HETATM   12  C   UNK     0      -4.605   1.399  21.441  0.00  0.00     0.210 C 
ENDBRANCH   6  11
BRANCH   7  13
HETATM   13  O   UNK     0      -3.407  -1.914  19.920  0.00  0.00    -0.357 OA
HETATM   14  C   UNK     0      -2.550  -0.885  19.160  0.00  0.00     0.209 C 
ENDBRANCH   7  13
ENDBRANCH   1   3
BRANCH   1  15
HETATM   15  C   UNK     0      -1.633  -5.679  24.140  0.00  0.00     0.679 A 
HETATM   16  N   UNK     0      -0.617  -6.592  23.429  0.00  0.00    -0.180 N 
HETATM   17  C   UNK     0      -0.907  -8.096  23.280  0.00  0.00     0.100 A 
HETATM   18  HN  UNK     0       0.248  -6.200  23.058  1.00  0.00     0.185 HD
HETATM   19  C   UNK     0      -2.213  -8.689  23.841  0.00  0.00     0.097 A 
HETATM   20  C   UNK     0      -3.230  -7.775  24.552  0.00  0.00     0.145 A 
HETATM   21  N   UNK     0      -2.939  -6.270  24.701  0.00  0.00    -0.226 N 
HETATM   22  HN  UNK     0      -3.612  -5.665  25.172  1.00  0.00     0.177 HD
BRANCH  17  23
HETATM   23  N   UNK     0       0.109  -9.010  22.569  0.00  0.00    -0.347 N 
HETATM   24  C   UNK     0       0.860 -10.093  23.365  0.00  0.00     0.157 C 
BRANCH  23  25
HETATM   25  C   UNK     0       0.375  -8.839  21.062  0.00  0.00    -0.004 A 
HETATM   26  C   UNK     0       1.561  -9.568  20.401  0.00  0.00     0.111 A 
HETATM   27  C   UNK     0       1.826  -9.397  18.894  0.00  0.00     0.039 A 
HETATM   28  C   UNK     0       0.906  -8.498  18.047  0.00  0.00    -0.010 A 
HETATM   29  N   UNK     0       2.907  -9.981  17.966  0.00  0.00    -0.304 N 
HETATM   30  C   UNK     0      -0.279  -7.770  18.707  0.00  0.00     0.048 A 
HETATM   31  C   UNK     0       1.418  -8.527  16.595  0.00  0.00     0.030 A 
HETATM   32  C   UNK     0      -0.545  -7.941  20.214  0.00  0.00     0.057 A 
HETATM   33  C   UNK     0       0.803  -7.772  15.403  0.00  0.00     0.070 C 
HETATM   34  N   UNK     0       2.655  -9.443  16.545  0.00  0.00    -0.304 N 
HETATM   35  HN  UNK     0       3.210  -9.657  15.716  1.00  0.00     0.186 HD
HETATM   36  HN  UNK     0       3.658 -10.613  18.243  1.00  0.00     0.186 HD
ENDBRANCH  23  25
ENDBRANCH  17  23
ENDBRANCH   1  15
TORSDOF 7
ENDMDL
MODEL 6
REMARK VINA RESULT:      -7.7      8.262     13.063
REMARK  7 active torsions:
REMARK  status: ('A' for Active; 'I' for Inactive)
REMARK    1  A    between atoms: N_1  and  C_5 
REMARK    2  A    between atoms: N_1  and  C_6 
REMARK    3  A    between atoms: C_9  and  N_23 
REMARK    4  A    between atoms: C_10  and  N_23 
REMARK    5  A    between atoms: C_15  and  O_36 
REMARK    6  A    between atoms: O_18  and  C_19 
REMARK    7  A    between atoms: C_34  and  O_35 
ROOT
HETATM    1  N   UNK     0      -1.123  -4.237  24.611  0.00  0.00    -0.199 N 
HETATM    2  HN  UNK     0      -0.320  -3.976  25.183  1.00  0.00     0.183 HD
ENDROOT
BRANCH   1   3
HETATM    3  C   UNK     0      -1.992  -3.144  23.960  0.00  0.00     0.016 A 
HETATM    4  C   UNK     0      -2.147  -3.096  22.428  0.00  0.00     0.120 A 
HETATM    5  C   UNK     0      -3.016  -2.003  21.777  0.00  0.00     0.086 A 
HETATM    6  C   UNK     0      -3.729  -0.960  22.657  0.00  0.00     0.127 A 
HETATM    7  C   UNK     0      -3.574  -1.009  24.189  0.00  0.00     0.086 A 
HETATM    8  C   UNK     0      -2.705  -2.101  24.840  0.00  0.00     0.120 A 
BRANCH   5   9
HETATM    9  O   UNK     0      -3.172  -1.954  20.246  0.00  0.00    -0.357 OA
HETATM   10  C   UNK     0      -2.387  -0.914  19.425  0.00  0.00     0.209 C 
ENDBRANCH   5   9
BRANCH   6  11
HETATM   11  O   UNK     0      -4.598   0.132  22.006  0.00  0.00    -0.351 OA
HETATM   12  C   UNK     0      -4.007   1.530  21.740  0.00  0.00     0.210 C 
ENDBRANCH   6  11
BRANCH   7  13
HETATM   13  O   UNK     0      -4.287   0.034  25.068  0.00  0.00    -0.357 OA
HETATM   14  C   UNK     0      -3.567   1.342  25.449  0.00  0.00     0.209 C 
ENDBRANCH   7  13
ENDBRANCH   1   3
BRANCH   1  15
HETATM   15  C   UNK     0      -1.467  -5.723  24.398  0.00  0.00     0.679 A 
HETATM   16  N   UNK     0      -0.482  -6.642  23.653  0.00  0.00    -0.180 N 
HETATM   17  C   UNK     0      -0.825  -8.127  23.440  0.00  0.00     0.100 A 
HETATM   18  HN  UNK     0       0.399  -6.267  23.300  1.00  0.00     0.185 HD
HETATM   19  C   UNK     0      -2.155  -8.694  23.972  0.00  0.00     0.097 A 
HETATM   20  C   UNK     0      -3.140  -7.775  24.717  0.00  0.00     0.145 A 
HETATM   21  N   UNK     0      -2.796  -6.289  24.930  0.00  0.00    -0.226 N 
HETATM   22  HN  UNK     0      -3.449  -5.680  25.423  1.00  0.00     0.177 HD
BRANCH  17  23
HETATM   23  N   UNK     0       0.161  -9.047  22.695  0.00  0.00    -0.347 N 
HETATM   24  C   UNK     0       0.910 -10.153  23.459  0.00  0.00     0.157 C 
BRANCH  23  25
HETATM   25  C   UNK     0       0.396  -8.859  21.184  0.00  0.00    -0.004 A 
HETATM   26  C   UNK     0       1.562  -9.589  20.490  0.00  0.00     0.111 A 
HETATM   27  C   UNK     0       1.797  -9.401  18.980  0.00  0.00     0.039 A 
HETATM   28  C   UNK     0       0.868  -8.484  18.164  0.00  0.00    -0.010 A 
HETATM   29  N   UNK     0       2.854  -9.982  18.022  0.00  0.00    -0.304 N 
HETATM   30  C   UNK     0      -0.298  -7.755  18.857  0.00  0.00     0.048 A 
HETATM   31  C   UNK     0       1.350  -8.499  16.701  0.00  0.00     0.030 A 
HETATM   32  C   UNK     0      -0.533  -7.943  20.367  0.00  0.00     0.057 A 
HETATM   33  C   UNK     0       0.716  -7.724  15.531  0.00  0.00     0.070 C 
HETATM   34  N   UNK     0       2.577  -9.424  16.614  0.00  0.00    -0.304 N 
HETATM   35  HN  UNK     0       3.113  -9.632  15.771  1.00  0.00     0.186 HD
HETATM   36  HN  UNK     0       3.605 -10.624  18.276  1.00  0.00     0.186 HD
ENDBRANCH  23  25
ENDBRANCH  17  23
ENDBRANCH   1  15
TORSDOF 7
ENDMDL
MODEL 7
REMARK VINA RESULT:      -6.9      9.194     14.090
REMARK  7 active torsions:
REMARK  status: ('A' for Active; 'I' for Inactive)
REMARK    1  A    between atoms: N_1  and  C_5 
REMARK    2  A    between atoms: N_1  and  C_6 
REMARK    3  A    between atoms: C_9  and  N_23 
REMARK    4  A    between atoms: C_10  and  N_23 
REMARK    5  A    between atoms: C_15  and  O_36 
REMARK    6  A    between atoms: O_18  and  C_19 
REMARK    7  A    between atoms: C_34  and  O_35 
ROOT
HETATM    1  N   UNK     0      -4.983  -5.046  24.226  0.00  0.00    -0.199 N 
HETATM    2  HN  UNK     0      -5.978  -4.933  24.034  1.00  0.00     0.183 HD
ENDROOT
BRANCH   1   3
HETATM    3  C   UNK     0      -4.045  -3.826  24.170  0.00  0.00     0.016 A 
HETATM    4  C   UNK     0      -3.249  -3.409  25.422  0.00  0.00     0.120 A 
HETATM    5  C   UNK     0      -2.311  -2.189  25.367  0.00  0.00     0.086 A 
HETATM    6  C   UNK     0      -2.168  -1.386  24.060  0.00  0.00     0.127 A 
HETATM    7  C   UNK     0      -2.963  -1.803  22.808  0.00  0.00     0.086 A 
HETATM    8  C   UNK     0      -3.901  -3.023  22.864  0.00  0.00     0.120 A 
BRANCH   5   9
HETATM    9  O   UNK     0      -1.516  -1.772  26.617  0.00  0.00    -0.357 OA
HETATM   10  C   UNK     0      -2.132  -0.786  27.628  0.00  0.00     0.209 C 
ENDBRANCH   5   9
BRANCH   6  11
HETATM   11  O   UNK     0      -1.229  -0.166  24.004  0.00  0.00    -0.351 OA
HETATM   12  C   UNK     0      -1.810   1.257  24.100  0.00  0.00     0.210 C 
ENDBRANCH   6  11
BRANCH   7  13
HETATM   13  O   UNK     0      -2.820  -1.001  21.502  0.00  0.00    -0.357 OA
HETATM   14  C   UNK     0      -3.965  -0.085  21.032  0.00  0.00     0.209 C 
ENDBRANCH   7  13
ENDBRANCH   1   3
BRANCH   1  15
HETATM   15  C   UNK     0      -4.418  -6.436  24.571  0.00  0.00     0.679 A 
HETATM   16  N   UNK     0      -2.953  -6.776  24.241  0.00  0.00    -0.180 N 
HETATM   17  C   UNK     0      -2.388  -8.166  24.586  0.00  0.00     0.100 A 
HETATM   18  HN  UNK     0      -2.357  -6.081  23.794  1.00  0.00     0.185 HD
HETATM   19  C   UNK     0      -3.289  -9.217  25.262  0.00  0.00     0.097 A 
HETATM   20  C   UNK     0      -4.754  -8.877  25.592  0.00  0.00     0.145 A 
HETATM   21  N   UNK     0      -5.319  -7.486  25.247  0.00  0.00    -0.226 N 
HETATM   22  HN  UNK     0      -6.289  -7.261  25.465  1.00  0.00     0.177 HD
BRANCH  17  23
HETATM   23  N   UNK     0      -0.923  -8.506  24.256  0.00  0.00    -0.347 N 
HETATM   24  C   UNK     0       0.057  -8.868  25.386  0.00  0.00     0.157 C 
BRANCH  23  25
HETATM   25  C   UNK     0      -0.438  -8.484  22.794  0.00  0.00    -0.004 A 
HETATM   26  C   UNK     0       0.468  -9.612  22.266  0.00  0.00     0.111 A 
HETATM   27  C   UNK     0       0.953  -9.589  20.805  0.00  0.00     0.039 A 
HETATM   28  C   UNK     0       0.531  -8.439  19.871  0.00  0.00    -0.010 A 
HETATM   29  N   UNK     0       1.847 -10.552  20.001  0.00  0.00    -0.304 N 
HETATM   30  C   UNK     0      -0.375  -7.312  20.398  0.00  0.00     0.048 A 
HETATM   31  C   UNK     0       1.164  -8.691  18.490  0.00  0.00     0.030 A 
HETATM   32  C   UNK     0      -0.860  -7.334  21.860  0.00  0.00     0.057 A 
HETATM   33  C   UNK     0       1.012  -7.795  17.247  0.00  0.00     0.070 C 
HETATM   34  N   UNK     0       1.978  -9.996  18.570  0.00  0.00    -0.304 N 
HETATM   35  HN  UNK     0       2.510 -10.419  17.809  1.00  0.00     0.186 HD
HETATM   36  HN  UNK     0       2.277 -11.406  20.354  1.00  0.00     0.186 HD
ENDBRANCH  23  25
ENDBRANCH  17  23
ENDBRANCH   1  15
TORSDOF 7
ENDMDL
MODEL 8
REMARK VINA RESULT:      -6.9      8.799     12.886
REMARK  7 active torsions:
REMARK  status: ('A' for Active; 'I' for Inactive)
REMARK    1  A    between atoms: N_1  and  C_5 
REMARK    2  A    between atoms: N_1  and  C_6 
REMARK    3  A    between atoms: C_9  and  N_23 
REMARK    4  A    between atoms: C_10  and  N_23 
REMARK    5  A    between atoms: C_15  and  O_36 
REMARK    6  A    between atoms: O_18  and  C_19 
REMARK    7  A    between atoms: C_34  and  O_35 
ROOT
HETATM    1  N   UNK     0      -1.529  -3.091  21.603  0.00  0.00    -0.199 N 
HETATM    2  HN  UNK     0      -1.464  -3.194  20.591  1.00  0.00     0.183 HD
ENDROOT
BRANCH   1   3
HETATM    3  C   UNK     0      -1.837  -1.713  22.218  0.00  0.00     0.016 A 
HETATM    4  C   UNK     0      -3.289  -1.332  22.564  0.00  0.00     0.120 A 
HETATM    5  C   UNK     0      -3.598   0.046  23.179  0.00  0.00     0.086 A 
HETATM    6  C   UNK     0      -2.455   1.042  23.449  0.00  0.00     0.127 A 
HETATM    7  C   UNK     0      -1.003   0.661  23.103  0.00  0.00     0.086 A 
HETATM    8  C   UNK     0      -0.694  -0.716  22.488  0.00  0.00     0.120 A 
BRANCH   5   9
HETATM    9  O   UNK     0      -5.048   0.427  23.525  0.00  0.00    -0.357 OA
HETATM   10  C   UNK     0      -5.866  -0.452  24.491  0.00  0.00     0.209 C 
ENDBRANCH   5   9
BRANCH   6  11
HETATM   11  O   UNK     0      -2.763   2.420  24.064  0.00  0.00    -0.351 OA
HETATM   12  C   UNK     0      -3.304   2.517  25.503  0.00  0.00     0.210 C 
ENDBRANCH   6  11
BRANCH   7  13
HETATM   13  O   UNK     0       0.139   1.658  23.372  0.00  0.00    -0.357 OA
HETATM   14  C   UNK     0       0.807   1.706  24.759  0.00  0.00     0.209 C 
ENDBRANCH   7  13
ENDBRANCH   1   3
BRANCH   1  15
HETATM   15  C   UNK     0      -1.318  -4.312  22.517  0.00  0.00     0.679 A 
HETATM   16  N   UNK     0      -0.796  -5.635  21.926  0.00  0.00    -0.180 N 
HETATM   17  C   UNK     0      -0.585  -6.856  22.839  0.00  0.00     0.100 A 
HETATM   18  HN  UNK     0      -0.590  -5.702  20.929  1.00  0.00     0.185 HD
HETATM   19  C   UNK     0      -0.896  -6.755  24.344  0.00  0.00     0.097 A 
HETATM   20  C   UNK     0      -1.417  -5.433  24.935  0.00  0.00     0.145 A 
HETATM   21  N   UNK     0      -1.628  -4.211  24.021  0.00  0.00    -0.226 N 
HETATM   22  HN  UNK     0      -1.974  -3.335  24.413  1.00  0.00     0.177 HD
BRANCH  17  23
HETATM   23  N   UNK     0      -0.064  -8.179  22.247  0.00  0.00    -0.347 N 
HETATM   24  C   UNK     0       0.130  -9.406  23.157  0.00  0.00     0.157 C 
BRANCH  23  25
HETATM   25  C   UNK     0       0.264  -8.275  20.746  0.00  0.00    -0.004 A 
HETATM   26  C   UNK     0       1.522  -9.031  20.278  0.00  0.00     0.111 A 
HETATM   27  C   UNK     0       1.850  -9.127  18.777  0.00  0.00     0.039 A 
HETATM   28  C   UNK     0       0.920  -8.466  17.742  0.00  0.00    -0.010 A 
HETATM   29  N   UNK     0       3.008  -9.799  18.016  0.00  0.00    -0.304 N 
HETATM   30  C   UNK     0      -0.338  -7.711  18.209  0.00  0.00     0.048 A 
HETATM   31  C   UNK     0       1.503  -8.730  16.341  0.00  0.00     0.030 A 
HETATM   32  C   UNK     0      -0.666  -7.615  19.711  0.00  0.00     0.057 A 
HETATM   33  C   UNK     0       0.902  -8.254  15.006  0.00  0.00     0.070 C 
HETATM   34  N   UNK     0       2.793  -9.554  16.511  0.00  0.00    -0.304 N 
HETATM   35  HN  UNK     0       3.399  -9.879  15.758  1.00  0.00     0.186 HD
HETATM   36  HN  UNK     0       3.781 -10.315  18.435  1.00  0.00     0.186 HD
ENDBRANCH  23  25
ENDBRANCH  17  23
ENDBRANCH   1  15
TORSDOF 7
ENDMDL
MODEL 9
REMARK VINA RESULT:      -6.5      9.582     13.925
REMARK  7 active torsions:
REMARK  status: ('A' for Active; 'I' for Inactive)
REMARK    1  A    between atoms: N_1  and  C_5 
REMARK    2  A    between atoms: N_1  and  C_6 
REMARK    3  A    between atoms: C_9  and  N_23 
REMARK    4  A    between atoms: C_10  and  N_23 
REMARK    5  A    between atoms: C_15  and  O_36 
REMARK    6  A    between atoms: O_18  and  C_19 
REMARK    7  A    between atoms: C_34  and  O_35 
ROOT
HETATM    1  N   UNK     0      -5.299  -4.933  23.855  0.00  0.00    -0.199 N 
HETATM    2  HN  UNK     0      -6.212  -5.134  23.446  1.00  0.00     0.183 HD
ENDROOT
BRANCH   1   3
HETATM    3  C   UNK     0      -4.666  -3.541  23.678  0.00  0.00     0.016 A 
HETATM    4  C   UNK     0      -5.537  -2.277  23.805  0.00  0.00     0.120 A 
HETATM    5  C   UNK     0      -4.903  -0.884  23.628  0.00  0.00     0.086 A 
HETATM    6  C   UNK     0      -3.399  -0.756  23.324  0.00  0.00     0.127 A 
HETATM    7  C   UNK     0      -2.528  -2.020  23.197  0.00  0.00     0.086 A 
HETATM    8  C   UNK     0      -3.161  -3.413  23.374  0.00  0.00     0.120 A 
BRANCH   5   9
HETATM    9  O   UNK     0      -5.773   0.379  23.755  0.00  0.00    -0.357 OA
HETATM   10  C   UNK     0      -6.283   0.827  25.138  0.00  0.00     0.209 C 
ENDBRANCH   5   9
BRANCH   6  11
HETATM   11  O   UNK     0      -2.765   0.636  23.147  0.00  0.00    -0.351 OA
HETATM   12  C   UNK     0      -2.504   1.189  21.733  0.00  0.00     0.210 C 
ENDBRANCH   6  11
BRANCH   7  13
HETATM   13  O   UNK     0      -1.024  -1.891  22.893  0.00  0.00    -0.357 OA
HETATM   14  C   UNK     0      -0.514  -2.058  21.449  0.00  0.00     0.209 C 
ENDBRANCH   7  13
ENDBRANCH   1   3
BRANCH   1  15
HETATM   15  C   UNK     0      -4.555  -6.022  24.651  0.00  0.00     0.679 A 
HETATM   16  N   UNK     0      -3.109  -6.397  24.276  0.00  0.00    -0.180 N 
HETATM   17  C   UNK     0      -2.365  -7.485  25.070  0.00  0.00     0.100 A 
HETATM   18  HN  UNK     0      -2.644  -5.924  23.501  1.00  0.00     0.185 HD
HETATM   19  C   UNK     0      -3.067  -8.200  26.240  0.00  0.00     0.097 A 
HETATM   20  C   UNK     0      -4.513  -7.825  26.615  0.00  0.00     0.145 A 
HETATM   21  N   UNK     0      -5.257  -6.736  25.820  0.00  0.00    -0.226 N 
HETATM   22  HN  UNK     0      -6.215  -6.488  26.068  1.00  0.00     0.177 HD
BRANCH  17  23
HETATM   23  N   UNK     0      -0.919  -7.860  24.695  0.00  0.00    -0.347 N 
HETATM   24  C   UNK     0       0.130  -8.082  25.800  0.00  0.00     0.157 C 
BRANCH  23  25
HETATM   25  C   UNK     0      -0.522  -8.011  23.215  0.00  0.00    -0.004 A 
HETATM   26  C   UNK     0       0.332  -9.212  22.765  0.00  0.00     0.111 A 
HETATM   27  C   UNK     0       0.729  -9.363  21.286  0.00  0.00     0.039 A 
HETATM   28  C   UNK     0       0.271  -8.314  20.255  0.00  0.00    -0.010 A 
HETATM   29  N   UNK     0       1.557 -10.429  20.544  0.00  0.00    -0.304 N 
HETATM   30  C   UNK     0      -0.582  -7.114  20.703  0.00  0.00     0.048 A 
HETATM   31  C   UNK     0       0.817  -8.732  18.876  0.00  0.00     0.030 A 
HETATM   32  C   UNK     0      -0.979  -6.963  22.184  0.00  0.00     0.057 A 
HETATM   33  C   UNK     0       0.606  -7.977  17.552  0.00  0.00     0.070 C 
HETATM   34  N   UNK     0       1.611 -10.039  19.056  0.00  0.00    -0.304 N 
HETATM   35  HN  UNK     0       2.090 -10.556  18.318  1.00  0.00     0.186 HD
HETATM   36  HN  UNK     0       1.992 -11.249  20.966  1.00  0.00     0.186 HD
ENDBRANCH  23  25
ENDBRANCH  17  23
ENDBRANCH   1  15
TORSDOF 7
ENDMDL
MODEL 10
REMARK VINA RESULT:      -6.5     10.028     13.646
REMARK  7 active torsions:
REMARK  status: ('A' for Active; 'I' for Inactive)
REMARK    1  A    between atoms: N_1  and  C_5 
REMARK    2  A    between atoms: N_1  and  C_6 
REMARK    3  A    between atoms: C_9  and  N_23 
REMARK    4  A    between atoms: C_10  and  N_23 
REMARK    5  A    between atoms: C_15  and  O_36 
REMARK    6  A    between atoms: O_18  and  C_19 
REMARK    7  A    between atoms: C_34  and  O_35 
ROOT
HETATM    1  N   UNK     0      -2.400  -2.546  22.064  0.00  0.00    -0.199 N 
HETATM    2  HN  UNK     0      -1.711  -2.216  21.388  1.00  0.00     0.183 HD
ENDROOT
BRANCH   1   3
HETATM    3  C   UNK     0      -3.857  -2.054  21.982  0.00  0.00     0.016 A 
HETATM    4  C   UNK     0      -4.986  -2.881  22.625  0.00  0.00     0.120 A 
HETATM    5  C   UNK     0      -6.443  -2.389  22.542  0.00  0.00     0.086 A 
HETATM    6  C   UNK     0      -6.771  -1.071  21.817  0.00  0.00     0.127 A 
HETATM    7  C   UNK     0      -5.642  -0.244  21.174  0.00  0.00     0.086 A 
HETATM    8  C   UNK     0      -4.185  -0.735  21.256  0.00  0.00     0.120 A 
BRANCH   5   9
HETATM    9  O   UNK     0      -7.572  -3.216  23.185  0.00  0.00    -0.357 OA
HETATM   10  C   UNK     0      -8.664  -3.846  22.300  0.00  0.00     0.209 C 
ENDBRANCH   5   9
BRANCH   6  11
HETATM   11  O   UNK     0      -8.228  -0.579  21.735  0.00  0.00    -0.351 OA
HETATM   12  C   UNK     0      -8.712   0.553  22.660  0.00  0.00     0.210 C 
ENDBRANCH   6  11
BRANCH   7  13
HETATM   13  O   UNK     0      -5.970   1.074  20.449  0.00  0.00    -0.357 OA
HETATM   14  C   UNK     0      -5.781   2.420  21.175  0.00  0.00     0.209 C 
ENDBRANCH   7  13
ENDBRANCH   1   3
BRANCH   1  15
HETATM   15  C   UNK     0      -1.982  -3.536  23.168  0.00  0.00     0.679 A 
HETATM   16  N   UNK     0      -1.860  -5.037  22.849  0.00  0.00    -0.180 N 
HETATM   17  C   UNK     0      -1.443  -6.027  23.951  0.00  0.00     0.100 A 
HETATM   18  HN  UNK     0      -2.055  -5.376  21.907  1.00  0.00     0.185 HD
HETATM   19  C   UNK     0      -1.148  -5.516  25.374  0.00  0.00     0.097 A 
HETATM   20  C   UNK     0      -1.271  -4.014  25.693  0.00  0.00     0.145 A 
HETATM   21  N   UNK     0      -1.688  -3.024  24.589  0.00  0.00    -0.226 N 
HETATM   22  HN  UNK     0      -1.769  -2.030  24.801  1.00  0.00     0.177 HD
BRANCH  17  23
HETATM   23  N   UNK     0      -1.320  -7.529  23.632  0.00  0.00    -0.347 N 
HETATM   24  C   UNK     0      -1.948  -8.570  24.576  0.00  0.00     0.157 C 
BRANCH  23  25
HETATM   25  C   UNK     0      -0.570  -7.989  22.368  0.00  0.00    -0.004 A 
HETATM   26  C   UNK     0      -0.959  -7.420  20.991  0.00  0.00     0.111 A 
HETATM   27  C   UNK     0      -0.209  -7.879  19.728  0.00  0.00     0.039 A 
HETATM   28  C   UNK     0       0.931  -8.909  19.841  0.00  0.00    -0.010 A 
HETATM   29  N   UNK     0      -0.363  -7.501  18.243  0.00  0.00    -0.304 N 
HETATM   30  C   UNK     0       1.321  -9.478  21.217  0.00  0.00     0.048 A 
HETATM   31  C   UNK     0       1.482  -9.167  18.426  0.00  0.00     0.030 A 
HETATM   32  C   UNK     0       0.570  -9.018  22.481  0.00  0.00     0.057 A 
HETATM   33  C   UNK     0       2.630 -10.125  18.062  0.00  0.00     0.070 C 
HETATM   34  N   UNK     0       0.682  -8.297  17.438  0.00  0.00    -0.304 N 
HETATM   35  HN  UNK     0       0.820  -8.255  16.429  1.00  0.00     0.186 HD
HETATM   36  HN  UNK     0      -1.038  -6.840  17.860  1.00  0.00     0.186 HD
ENDBRANCH  23  25
ENDBRANCH  17  23
ENDBRANCH   1  15
TORSDOF 7
ENDMDL
MODEL 11
REMARK VINA RESULT:      -6.4      2.016      4.034
REMARK  7 active torsions:
REMARK  status: ('A' for Active; 'I' for Inactive)
REMARK    1  A    between atoms: N_1  and  C_5 
REMARK    2  A    between atoms: N_1  and  C_6 
REMARK    3  A    between atoms: C_9  and  N_23 
REMARK    4  A    between atoms: C_10  and  N_23 
REMARK    5  A    between atoms: C_15  and  O_36 
REMARK    6  A    between atoms: O_18  and  C_19 
REMARK    7  A    between atoms: C_34  and  O_35 
ROOT
HETATM    1  N   UNK     0       3.069  -6.287  11.200  0.00  0.00    -0.199 N 
HETATM    2  HN  UNK     0       2.968  -7.148  10.662  1.00  0.00     0.183 HD
ENDROOT
BRANCH   1   3
HETATM    3  C   UNK     0       3.767  -5.065  10.575  0.00  0.00     0.016 A 
HETATM    4  C   UNK     0       5.246  -4.776  10.895  0.00  0.00     0.120 A 
HETATM    5  C   UNK     0       5.944  -3.554  10.270  0.00  0.00     0.086 A 
HETATM    6  C   UNK     0       5.163  -2.621   9.325  0.00  0.00     0.127 A 
HETATM    7  C   UNK     0       3.685  -2.910   9.005  0.00  0.00     0.086 A 
HETATM    8  C   UNK     0       2.987  -4.133   9.630  0.00  0.00     0.120 A 
BRANCH   5   9
HETATM    9  O   UNK     0       7.422  -3.264  10.589  0.00  0.00    -0.357 OA
HETATM   10  C   UNK     0       8.477  -3.321   9.469  0.00  0.00     0.209 C 
ENDBRANCH   5   9
BRANCH   6  11
HETATM   11  O   UNK     0       5.861  -1.399   8.700  0.00  0.00    -0.351 OA
HETATM   12  C   UNK     0       6.594  -1.536   7.352  0.00  0.00     0.210 C 
ENDBRANCH   6  11
BRANCH   7  13
HETATM   13  O   UNK     0       2.905  -1.978   8.060  0.00  0.00    -0.357 OA
HETATM   14  C   UNK     0       3.181  -2.010   6.545  0.00  0.00     0.209 C 
ENDBRANCH   7  13
ENDBRANCH   1   3
BRANCH   1  15
HETATM   15  C   UNK     0       2.524  -6.210  12.638  0.00  0.00     0.679 A 
HETATM   16  N   UNK     0       2.690  -7.410  13.590  0.00  0.00    -0.180 N 
HETATM   17  C   UNK     0       2.145  -7.333  15.028  0.00  0.00     0.100 A 
HETATM   18  HN  UNK     0       3.161  -8.255  13.268  1.00  0.00     0.185 HD
HETATM   19  C   UNK     0       1.434  -6.057  15.515  0.00  0.00     0.097 A 
HETATM   20  C   UNK     0       1.267  -4.858  14.563  0.00  0.00     0.145 A 
HETATM   21  N   UNK     0       1.813  -4.935  13.125  0.00  0.00    -0.226 N 
HETATM   22  HN  UNK     0       1.703  -4.140  12.494  1.00  0.00     0.177 HD
BRANCH  17  23
HETATM   23  N   UNK     0       2.311  -8.533  15.979  0.00  0.00    -0.347 N 
HETATM   24  C   UNK     0       3.129  -9.759  15.537  0.00  0.00     0.157 C 
BRANCH  23  25
HETATM   25  C   UNK     0       1.658  -8.505  17.374  0.00  0.00    -0.004 A 
HETATM   26  C   UNK     0       2.270  -9.323  18.527  0.00  0.00     0.111 A 
HETATM   27  C   UNK     0       1.617  -9.295  19.921  0.00  0.00     0.039 A 
HETATM   28  C   UNK     0       0.352  -8.450  20.163  0.00  0.00    -0.010 A 
HETATM   29  N   UNK     0       1.985  -9.990  21.245  0.00  0.00    -0.304 N 
HETATM   30  C   UNK     0      -0.259  -7.633  19.010  0.00  0.00     0.048 A 
HETATM   31  C   UNK     0      -0.061  -8.623  21.636  0.00  0.00     0.030 A 
HETATM   32  C   UNK     0       0.394  -7.660  17.616  0.00  0.00     0.057 A 
HETATM   33  C   UNK     0      -1.270  -7.960  22.321  0.00  0.00     0.070 C 
HETATM   34  N   UNK     0       0.948  -9.575  22.305  0.00  0.00    -0.304 N 
HETATM   35  HN  UNK     0       0.932  -9.877  23.279  1.00  0.00     0.186 HD
HETATM   36  HN  UNK     0       2.777 -10.616  21.394  1.00  0.00     0.186 HD
ENDBRANCH  23  25
ENDBRANCH  17  23
ENDBRANCH   1  15
TORSDOF 7
ENDMDL
MODEL 12
REMARK VINA RESULT:      -6.3      9.694     14.133
REMARK  7 active torsions:
REMARK  status: ('A' for Active; 'I' for Inactive)
REMARK    1  A    between atoms: N_1  and  C_5 
REMARK    2  A    between atoms: N_1  and  C_6 
REMARK    3  A    between atoms: C_9  and  N_23 
REMARK    4  A    between atoms: C_10  and  N_23 
REMARK    5  A    between atoms: C_15  and  O_36 
REMARK    6  A    between atoms: O_18  and  C_19 
REMARK    7  A    between atoms: C_34  and  O_35 
ROOT
HETATM    1  N   UNK     0      -2.361  -2.905  23.414  0.00  0.00    -0.199 N 
HETATM    2  HN  UNK     0      -1.477  -2.552  23.050  1.00  0.00     0.183 HD
ENDROOT
BRANCH   1   3
HETATM    3  C   UNK     0      -3.678  -2.185  23.068  0.00  0.00     0.016 A 
HETATM    4  C   UNK     0      -3.743  -0.646  23.088  0.00  0.00     0.120 A 
HETATM    5  C   UNK     0      -5.060   0.074  22.742  0.00  0.00     0.086 A 
HETATM    6  C   UNK     0      -6.312  -0.745  22.377  0.00  0.00     0.127 A 
HETATM    7  C   UNK     0      -6.247  -2.284  22.357  0.00  0.00     0.086 A 
HETATM    8  C   UNK     0      -4.930  -3.004  22.702  0.00  0.00     0.120 A 
BRANCH   5   9
HETATM    9  O   UNK     0      -5.125   1.612  22.762  0.00  0.00    -0.357 OA
HETATM   10  C   UNK     0      -5.229   2.395  21.440  0.00  0.00     0.209 C 
ENDBRANCH   5   9
BRANCH   6  11
HETATM   11  O   UNK     0      -7.629  -0.025  22.031  0.00  0.00    -0.351 OA
HETATM   12  C   UNK     0      -8.743   0.091  23.088  0.00  0.00     0.210 C 
ENDBRANCH   6  11
BRANCH   7  13
HETATM   13  O   UNK     0      -7.499  -3.102  21.991  0.00  0.00    -0.357 OA
HETATM   14  C   UNK     0      -7.695  -4.513  22.576  0.00  0.00     0.209 C 
ENDBRANCH   7  13
ENDBRANCH   1   3
BRANCH   1  15
HETATM   15  C   UNK     0      -2.381  -4.158  24.308  0.00  0.00     0.679 A 
HETATM   16  N   UNK     0      -1.720  -5.461  23.823  0.00  0.00    -0.180 N 
HETATM   17  C   UNK     0      -1.739  -6.714  24.717  0.00  0.00     0.100 A 
HETATM   18  HN  UNK     0      -1.269  -5.494  22.909  1.00  0.00     0.185 HD
HETATM   19  C   UNK     0      -2.420  -6.664  26.098  0.00  0.00     0.097 A 
HETATM   20  C   UNK     0      -3.081  -5.361  26.583  0.00  0.00     0.145 A 
HETATM   21  N   UNK     0      -3.062  -4.108  25.688  0.00  0.00    -0.226 N 
HETATM   22  HN  UNK     0      -3.499  -3.245  26.010  1.00  0.00     0.177 HD
BRANCH  17  23
HETATM   23  N   UNK     0      -1.078  -8.017  24.231  0.00  0.00    -0.347 N 
HETATM   24  C   UNK     0      -0.917  -9.206  25.197  0.00  0.00     0.157 C 
BRANCH  23  25
HETATM   25  C   UNK     0      -0.577  -8.132  22.779  0.00  0.00    -0.004 A 
HETATM   26  C   UNK     0       0.357  -9.288  22.375  0.00  0.00     0.111 A 
HETATM   27  C   UNK     0       0.856  -9.403  20.923  0.00  0.00     0.039 A 
HETATM   28  C   UNK     0       0.423  -8.361  19.875  0.00  0.00    -0.010 A 
HETATM   29  N   UNK     0       1.778 -10.422  20.228  0.00  0.00    -0.304 N 
HETATM   30  C   UNK     0      -0.511  -7.205  20.278  0.00  0.00     0.048 A 
HETATM   31  C   UNK     0       1.077  -8.737  18.532  0.00  0.00     0.030 A 
HETATM   32  C   UNK     0      -1.011  -7.091  21.731  0.00  0.00     0.057 A 
HETATM   33  C   UNK     0       0.920  -7.973  17.204  0.00  0.00     0.070 C 
HETATM   34  N   UNK     0       1.914 -10.011  18.750  0.00  0.00    -0.304 N 
HETATM   35  HN  UNK     0       2.462 -10.497  18.041  1.00  0.00     0.186 HD
HETATM   36  HN  UNK     0       2.221 -11.228  20.669  1.00  0.00     0.186 HD
ENDBRANCH  23  25
ENDBRANCH  17  23
ENDBRANCH   1  15
TORSDOF 7
ENDMDL
MODEL 13
REMARK VINA RESULT:      -6.2     11.030     14.448
REMARK  7 active torsions:
REMARK  status: ('A' for Active; 'I' for Inactive)
REMARK    1  A    between atoms: N_1  and  C_5 
REMARK    2  A    between atoms: N_1  and  C_6 
REMARK    3  A    between atoms: C_9  and  N_23 
REMARK    4  A    between atoms: C_10  and  N_23 
REMARK    5  A    between atoms: C_15  and  O_36 
REMARK    6  A    between atoms: O_18  and  C_19 
REMARK    7  A    between atoms: C_34  and  O_35 
ROOT
HETATM    1  N   UNK     0      -0.377  -3.511  21.840  0.00  0.00    -0.199 N 
HETATM    2  HN  UNK     0       0.540  -3.082  21.722  1.00  0.00     0.183 HD
ENDROOT
BRANCH   1   3
HETATM    3  C   UNK     0      -0.498  -4.912  22.467  0.00  0.00     0.016 A 
HETATM    4  C   UNK     0      -0.808  -5.060  23.968  0.00  0.00     0.120 A 
HETATM    5  C   UNK     0      -0.929  -6.461  24.595  0.00  0.00     0.086 A 
HETATM    6  C   UNK     0      -0.739  -7.715  23.721  0.00  0.00     0.127 A 
HETATM    7  C   UNK     0      -0.429  -7.567  22.220  0.00  0.00     0.086 A 
HETATM    8  C   UNK     0      -0.308  -6.166  21.593  0.00  0.00     0.120 A 
BRANCH   5   9
HETATM    9  O   UNK     0      -1.239  -6.609  26.096  0.00  0.00    -0.357 OA
HETATM   10  C   UNK     0      -1.192  -5.376  27.017  0.00  0.00     0.209 C 
ENDBRANCH   5   9
BRANCH   6  11
HETATM   11  O   UNK     0      -0.860  -9.116  24.348  0.00  0.00    -0.351 OA
HETATM   12  C   UNK     0       0.373  -9.783  24.986  0.00  0.00     0.210 C 
ENDBRANCH   6  11
BRANCH   7  13
HETATM   13  O   UNK     0      -0.239  -8.821  21.346  0.00  0.00    -0.357 OA
HETATM   14  C   UNK     0       0.478  -8.711  19.988  0.00  0.00     0.209 C 
ENDBRANCH   7  13
ENDBRANCH   1   3
BRANCH   1  15
HETATM   15  C   UNK     0      -1.643  -2.757  21.390  0.00  0.00     0.679 A 
HETATM   16  N   UNK     0      -2.985  -3.012  22.102  0.00  0.00    -0.180 N 
HETATM   17  C   UNK     0      -4.250  -2.259  21.653  0.00  0.00     0.100 A 
HETATM   18  HN  UNK     0      -3.035  -3.680  22.871  1.00  0.00     0.185 HD
HETATM   19  C   UNK     0      -4.174  -1.249  20.492  0.00  0.00     0.097 A 
HETATM   20  C   UNK     0      -2.832  -0.994  19.780  0.00  0.00     0.145 A 
HETATM   21  N   UNK     0      -1.566  -1.748  20.230  0.00  0.00    -0.226 N 
HETATM   22  HN  UNK     0      -0.678  -1.579  19.759  1.00  0.00     0.177 HD
BRANCH  17  23
HETATM   23  N   UNK     0      -5.591  -2.514  22.364  0.00  0.00    -0.347 N 
HETATM   24  C   UNK     0      -6.756  -1.522  22.191  0.00  0.00     0.157 C 
BRANCH  23  25
HETATM   25  C   UNK     0      -5.769  -3.762  23.249  0.00  0.00    -0.004 A 
HETATM   26  C   UNK     0      -6.920  -4.747  22.970  0.00  0.00     0.111 A 
HETATM   27  C   UNK     0      -7.096  -5.994  23.855  0.00  0.00     0.039 A 
HETATM   28  C   UNK     0      -6.122  -6.258  25.018  0.00  0.00    -0.010 A 
HETATM   29  N   UNK     0      -8.127  -7.139  23.828  0.00  0.00    -0.304 N 
HETATM   30  C   UNK     0      -4.972  -5.274  25.297  0.00  0.00     0.048 A 
HETATM   31  C   UNK     0      -6.551  -7.565  25.711  0.00  0.00     0.030 A 
HETATM   32  C   UNK     0      -4.795  -4.026  24.413  0.00  0.00     0.057 A 
HETATM   33  C   UNK     0      -5.862  -8.214  26.925  0.00  0.00     0.070 C 
HETATM   34  N   UNK     0      -7.789  -8.110  24.975  0.00  0.00    -0.304 N 
HETATM   35  HN  UNK     0      -8.297  -8.963  25.207  1.00  0.00     0.186 HD
HETATM   36  HN  UNK     0      -8.897  -7.237  23.167  1.00  0.00     0.186 HD
ENDBRANCH  23  25
ENDBRANCH  17  23
ENDBRANCH   1  15
TORSDOF 7
ENDMDL
MODEL 14
REMARK VINA RESULT:      -6.0     11.730     14.359
REMARK  7 active torsions:
REMARK  status: ('A' for Active; 'I' for Inactive)
REMARK    1  A    between atoms: N_1  and  C_5 
REMARK    2  A    between atoms: N_1  and  C_6 
REMARK    3  A    between atoms: C_9  and  N_23 
REMARK    4  A    between atoms: C_10  and  N_23 
REMARK    5  A    between atoms: C_15  and  O_36 
REMARK    6  A    between atoms: O_18  and  C_19 
REMARK    7  A    between atoms: C_34  and  O_35 
ROOT
HETATM    1  N   UNK     0      -6.259  -0.159  20.954  0.00  0.00    -0.199 N 
HETATM    2  HN  UNK     0      -6.704   0.202  20.111  1.00  0.00     0.183 HD
ENDROOT
BRANCH   1   3
HETATM    3  C   UNK     0      -4.846   0.314  21.343  0.00  0.00     0.016 A 
HETATM    4  C   UNK     0      -3.615  -0.256  20.613  0.00  0.00     0.120 A 
HETATM    5  C   UNK     0      -2.202   0.216  21.001  0.00  0.00     0.086 A 
HETATM    6  C   UNK     0      -2.020   1.260  22.120  0.00  0.00     0.127 A 
HETATM    7  C   UNK     0      -3.250   1.830  22.850  0.00  0.00     0.086 A 
HETATM    8  C   UNK     0      -4.663   1.357  22.461  0.00  0.00     0.120 A 
BRANCH   5   9
HETATM    9  O   UNK     0      -0.972  -0.353  20.272  0.00  0.00    -0.357 OA
HETATM   10  C   UNK     0      -0.090  -1.412  20.960  0.00  0.00     0.209 C 
ENDBRANCH   5   9
BRANCH   6  11
HETATM   11  O   UNK     0      -0.606   1.732  22.508  0.00  0.00    -0.351 OA
HETATM   12  C   UNK     0       0.106   1.112  23.725  0.00  0.00     0.210 C 
ENDBRANCH   6  11
BRANCH   7  13
HETATM   13  O   UNK     0      -3.067   2.872  23.968  0.00  0.00    -0.357 OA
HETATM   14  C   UNK     0      -4.251   3.762  24.392  0.00  0.00     0.209 C 
ENDBRANCH   7  13
ENDBRANCH   1   3
BRANCH   1  15
HETATM   15  C   UNK     0      -7.001  -1.178  21.840  0.00  0.00     0.679 A 
HETATM   16  N   UNK     0      -6.299  -1.784  23.069  0.00  0.00    -0.180 N 
HETATM   17  C   UNK     0      -7.039  -2.803  23.955  0.00  0.00     0.100 A 
HETATM   18  HN  UNK     0      -5.343  -1.511  23.297  1.00  0.00     0.185 HD
HETATM   19  C   UNK     0      -8.483  -3.216  23.611  0.00  0.00     0.097 A 
HETATM   20  C   UNK     0      -9.185  -2.610  22.381  0.00  0.00     0.145 A 
HETATM   21  N   UNK     0      -8.443  -1.591  21.496  0.00  0.00    -0.226 N 
HETATM   22  HN  UNK     0      -8.908  -1.189  20.681  1.00  0.00     0.177 HD
BRANCH  17  23
HETATM   23  N   UNK     0      -6.337  -3.409  25.184  0.00  0.00    -0.347 N 
HETATM   24  C   UNK     0      -6.803  -3.029  26.601  0.00  0.00     0.157 C 
BRANCH  23  25
HETATM   25  C   UNK     0      -5.170  -4.395  24.995  0.00  0.00    -0.004 A 
HETATM   26  C   UNK     0      -3.738  -3.865  24.792  0.00  0.00     0.111 A 
HETATM   27  C   UNK     0      -2.571  -4.851  24.603  0.00  0.00     0.039 A 
HETATM   28  C   UNK     0      -2.835  -6.368  24.619  0.00  0.00    -0.010 A 
HETATM   29  N   UNK     0      -1.062  -4.632  24.383  0.00  0.00    -0.304 N 
HETATM   30  C   UNK     0      -4.265  -6.899  24.822  0.00  0.00     0.048 A 
HETATM   31  C   UNK     0      -1.489  -7.087  24.408  0.00  0.00     0.030 A 
HETATM   32  C   UNK     0      -5.433  -5.912  25.011  0.00  0.00     0.057 A 
HETATM   33  C   UNK     0      -1.276  -8.611  24.352  0.00  0.00     0.070 C 
HETATM   34  N   UNK     0      -0.394  -6.014  24.262  0.00  0.00    -0.304 N 
HETATM   35  HN  UNK     0       0.600  -6.188  24.112  1.00  0.00     0.186 HD
HETATM   36  HN  UNK     0      -0.589  -3.730  24.327  1.00  0.00     0.186 HD
ENDBRANCH  23  25
ENDBRANCH  17  23
ENDBRANCH   1  15
TORSDOF 7
ENDMDL
MODEL 15
REMARK VINA RESULT:      -6.0      9.889     13.665
REMARK  7 active torsions:
REMARK  status: ('A' for Active; 'I' for Inactive)
REMARK    1  A    between atoms: N_1  and  C_5 
REMARK    2  A    between atoms: N_1  and  C_6 
REMARK    3  A    between atoms: C_9  and  N_23 
REMARK    4  A    between atoms: C_10  and  N_23 
REMARK    5  A    between atoms: C_15  and  O_36 
REMARK    6  A    between atoms: O_18  and  C_19 
REMARK    7  A    between atoms: C_34  and  O_35 
ROOT
HETATM    1  N   UNK     0      -2.145  -2.012  22.354  0.00  0.00    -0.199 N 
HETATM    2  HN  UNK     0      -1.419  -2.118  21.646  1.00  0.00     0.183 HD
ENDROOT
BRANCH   1   3
HETATM    3  C   UNK     0      -2.891  -0.672  22.498  0.00  0.00     0.016 A 
HETATM    4  C   UNK     0      -4.286  -0.496  21.869  0.00  0.00     0.120 A 
HETATM    5  C   UNK     0      -5.032   0.844  22.014  0.00  0.00     0.086 A 
HETATM    6  C   UNK     0      -4.383   2.007  22.787  0.00  0.00     0.127 A 
HETATM    7  C   UNK     0      -2.988   1.830  23.417  0.00  0.00     0.086 A 
HETATM    8  C   UNK     0      -2.242   0.491  23.272  0.00  0.00     0.120 A 
BRANCH   5   9
HETATM    9  O   UNK     0      -6.426   1.021  21.385  0.00  0.00    -0.357 OA
HETATM   10  C   UNK     0      -7.646   0.316  22.007  0.00  0.00     0.209 C 
ENDBRANCH   5   9
BRANCH   6  11
HETATM   11  O   UNK     0      -5.128   3.346  22.932  0.00  0.00    -0.351 OA
HETATM   12  C   UNK     0      -6.301   3.472  23.923  0.00  0.00     0.210 C 
ENDBRANCH   6  11
BRANCH   7  13
HETATM   13  O   UNK     0      -2.340   2.993  24.190  0.00  0.00    -0.357 OA
HETATM   14  C   UNK     0      -2.589   3.146  25.702  0.00  0.00     0.209 C 
ENDBRANCH   7  13
ENDBRANCH   1   3
BRANCH   1  15
HETATM   15  C   UNK     0      -2.497  -3.193  23.278  0.00  0.00     0.679 A 
HETATM   16  N   UNK     0      -1.695  -4.504  23.191  0.00  0.00    -0.180 N 
HETATM   17  C   UNK     0      -2.046  -5.685  24.115  0.00  0.00     0.100 A 
HETATM   18  HN  UNK     0      -0.931  -4.591  22.521  1.00  0.00     0.185 HD
HETATM   19  C   UNK     0      -3.200  -5.554  25.126  0.00  0.00     0.097 A 
HETATM   20  C   UNK     0      -4.002  -4.242  25.214  0.00  0.00     0.145 A 
HETATM   21  N   UNK     0      -3.651  -3.062  24.289  0.00  0.00    -0.226 N 
HETATM   22  HN  UNK     0      -4.182  -2.193  24.347  1.00  0.00     0.177 HD
BRANCH  17  23
HETATM   23  N   UNK     0      -1.244  -6.996  24.027  0.00  0.00    -0.347 N 
HETATM   24  C   UNK     0      -1.002  -7.837  25.294  0.00  0.00     0.157 C 
BRANCH  23  25
HETATM   25  C   UNK     0      -0.683  -7.467  22.672  0.00  0.00    -0.004 A 
HETATM   26  C   UNK     0       0.201  -8.727  22.600  0.00  0.00     0.111 A 
HETATM   27  C   UNK     0       0.761  -9.197  21.245  0.00  0.00     0.039 A 
HETATM   28  C   UNK     0       0.437  -8.409  19.963  0.00  0.00    -0.010 A 
HETATM   29  N   UNK     0       1.654 -10.391  20.858  0.00  0.00    -0.304 N 
HETATM   30  C   UNK     0      -0.446  -7.150  20.034  0.00  0.00     0.048 A 
HETATM   31  C   UNK     0       1.131  -9.115  18.782  0.00  0.00     0.030 A 
HETATM   32  C   UNK     0      -1.007  -6.679  21.389  0.00  0.00     0.057 A 
HETATM   33  C   UNK     0       1.081  -8.674  17.308  0.00  0.00     0.070 C 
HETATM   34  N   UNK     0       1.882 -10.340  19.336  0.00  0.00    -0.304 N 
HETATM   35  HN  UNK     0       2.434 -11.002  18.790  1.00  0.00     0.186 HD
HETATM   36  HN  UNK     0       2.028 -11.092  21.498  1.00  0.00     0.186 HD
ENDBRANCH  23  25
ENDBRANCH  17  23
ENDBRANCH   1  15
TORSDOF 7
ENDMDL
MODEL 16
REMARK VINA RESULT:      -6.0     11.441     15.295
REMARK  7 active torsions:
REMARK  status: ('A' for Active; 'I' for Inactive)
REMARK    1  A    between atoms: N_1  and  C_5 
REMARK    2  A    between atoms: N_1  and  C_6 
REMARK    3  A    between atoms: C_9  and  N_23 
REMARK    4  A    between atoms: C_10  and  N_23 
REMARK    5  A    between atoms: C_15  and  O_36 
REMARK    6  A    between atoms: O_18  and  C_19 
REMARK    7  A    between atoms: C_34  and  O_35 
ROOT
HETATM    1  N   UNK     0      -1.773  -3.719  21.134  0.00  0.00    -0.199 N 
HETATM    2  HN  UNK     0      -2.342  -3.925  20.313  1.00  0.00     0.183 HD
ENDROOT
BRANCH   1   3
HETATM    3  C   UNK     0      -1.273  -4.865  22.033  0.00  0.00     0.016 A 
HETATM    4  C   UNK     0      -1.044  -4.621  23.536  0.00  0.00     0.120 A 
HETATM    5  C   UNK     0      -0.544  -5.768  24.435  0.00  0.00     0.086 A 
HETATM    6  C   UNK     0      -0.274  -7.158  23.830  0.00  0.00     0.127 A 
HETATM    7  C   UNK     0      -0.503  -7.402  22.327  0.00  0.00     0.086 A 
HETATM    8  C   UNK     0      -1.002  -6.256  21.428  0.00  0.00     0.120 A 
BRANCH   5   9
HETATM    9  O   UNK     0      -0.315  -5.524  25.937  0.00  0.00    -0.357 OA
HETATM   10  C   UNK     0       1.114  -5.321  26.475  0.00  0.00     0.209 C 
ENDBRANCH   5   9
BRANCH   6  11
HETATM   11  O   UNK     0       0.226  -8.305  24.729  0.00  0.00    -0.351 OA
HETATM   12  C   UNK     0      -0.743  -9.419  25.165  0.00  0.00     0.210 C 
ENDBRANCH   6  11
BRANCH   7  13
HETATM   13  O   UNK     0      -0.232  -8.792  21.723  0.00  0.00    -0.357 OA
HETATM   14  C   UNK     0       1.118  -9.087  21.043  0.00  0.00     0.209 C 
ENDBRANCH   7  13
ENDBRANCH   1   3
BRANCH   1  15
HETATM   15  C   UNK     0      -1.413  -2.261  21.475  0.00  0.00     0.679 A 
HETATM   16  N   UNK     0      -2.466  -1.337  22.115  0.00  0.00    -0.180 N 
HETATM   17  C   UNK     0      -2.106   0.120  22.456  0.00  0.00     0.100 A 
HETATM   18  HN  UNK     0      -3.401  -1.691  22.313  1.00  0.00     0.185 HD
HETATM   19  C   UNK     0      -0.693   0.655  22.156  0.00  0.00     0.097 A 
HETATM   20  C   UNK     0       0.360  -0.268  21.516  0.00  0.00     0.145 A 
HETATM   21  N   UNK     0      -0.000  -1.727  21.175  0.00  0.00    -0.226 N 
HETATM   22  HN  UNK     0       0.697  -2.338  20.751  1.00  0.00     0.177 HD
BRANCH  17  23
HETATM   23  N   UNK     0      -3.159   1.044  23.096  0.00  0.00    -0.347 N 
HETATM   24  C   UNK     0      -2.715   2.213  23.994  0.00  0.00     0.157 C 
BRANCH  23  25
HETATM   25  C   UNK     0      -4.658   0.798  22.837  0.00  0.00    -0.004 A 
HETATM   26  C   UNK     0      -5.468  -0.096  23.795  0.00  0.00     0.111 A 
HETATM   27  C   UNK     0      -6.966  -0.341  23.536  0.00  0.00     0.039 A 
HETATM   28  C   UNK     0      -7.654   0.308  22.321  0.00  0.00    -0.010 A 
HETATM   29  N   UNK     0      -8.021  -1.167  24.295  0.00  0.00    -0.304 N 
HETATM   30  C   UNK     0      -6.844   1.202  21.364  0.00  0.00     0.048 A 
HETATM   31  C   UNK     0      -9.134  -0.117  22.329  0.00  0.00     0.030 A 
HETATM   32  C   UNK     0      -5.346   1.447  21.622  0.00  0.00     0.057 A 
HETATM   33  C   UNK     0     -10.200   0.296  21.298  0.00  0.00     0.070 C 
HETATM   34  N   UNK     0      -9.361  -1.029  23.549  0.00  0.00    -0.304 N 
HETATM   35  HN  UNK     0     -10.243  -1.465  23.816  1.00  0.00     0.186 HD
HETATM   36  HN  UNK     0      -7.860  -1.711  25.143  1.00  0.00     0.186 HD
ENDBRANCH  23  25
ENDBRANCH  17  23
ENDBRANCH   1  15
TORSDOF 7
ENDMDL
MODEL 17
REMARK VINA RESULT:      -6.0     12.136     15.521
REMARK  7 active torsions:
REMARK  status: ('A' for Active; 'I' for Inactive)
REMARK    1  A    between atoms: N_1  and  C_5 
REMARK    2  A    between atoms: N_1  and  C_6 
REMARK    3  A    between atoms: C_9  and  N_23 
REMARK    4  A    between atoms: C_10  and  N_23 
REMARK    5  A    between atoms: C_15  and  O_36 
REMARK    6  A    between atoms: O_18  and  C_19 
REMARK    7  A    between atoms: C_34  and  O_35 
ROOT
HETATM    1  N   UNK     0      -4.495  -6.477  25.686  0.00  0.00    -0.199 N 
HETATM    2  HN  UNK     0      -4.693  -6.360  26.679  1.00  0.00     0.183 HD
ENDROOT
BRANCH   1   3
HETATM    3  C   UNK     0      -3.223  -7.218  25.236  0.00  0.00     0.016 A 
HETATM    4  C   UNK     0      -2.262  -6.559  24.229  0.00  0.00     0.120 A 
HETATM    5  C   UNK     0      -0.990  -7.301  23.779  0.00  0.00     0.086 A 
HETATM    6  C   UNK     0      -0.678  -8.702  24.336  0.00  0.00     0.127 A 
HETATM    7  C   UNK     0      -1.639  -9.362  25.344  0.00  0.00     0.086 A 
HETATM    8  C   UNK     0      -2.911  -8.620  25.793  0.00  0.00     0.120 A 
BRANCH   5   9
HETATM    9  O   UNK     0      -0.030  -6.642  22.772  0.00  0.00    -0.357 OA
HETATM   10  C   UNK     0      -0.047  -5.114  22.579  0.00  0.00     0.209 C 
ENDBRANCH   5   9
BRANCH   6  11
HETATM   11  O   UNK     0       0.594  -9.444  23.887  0.00  0.00    -0.351 OA
HETATM   12  C   UNK     0       0.746  -9.893  22.421  0.00  0.00     0.210 C 
ENDBRANCH   6  11
BRANCH   7  13
HETATM   13  O   UNK     0      -1.327 -10.763  25.900  0.00  0.00    -0.357 OA
HETATM   14  C   UNK     0      -1.521 -12.006  25.011  0.00  0.00     0.209 C 
ENDBRANCH   7  13
ENDBRANCH   1   3
BRANCH   1  15
HETATM   15  C   UNK     0      -5.469  -5.911  24.635  0.00  0.00     0.679 A 
HETATM   16  N   UNK     0      -5.273  -4.483  24.094  0.00  0.00    -0.180 N 
HETATM   17  C   UNK     0      -6.246  -3.917  23.043  0.00  0.00     0.100 A 
HETATM   18  HN  UNK     0      -4.499  -3.911  24.431  1.00  0.00     0.185 HD
HETATM   19  C   UNK     0      -7.416  -4.780  22.534  0.00  0.00     0.097 A 
HETATM   20  C   UNK     0      -7.612  -6.209  23.075  0.00  0.00     0.145 A 
HETATM   21  N   UNK     0      -6.638  -6.774  24.126  0.00  0.00    -0.226 N 
HETATM   22  HN  UNK     0      -6.768  -7.720  24.484  1.00  0.00     0.177 HD
BRANCH  17  23
HETATM   23  N   UNK     0      -6.051  -2.489  22.502  0.00  0.00    -0.347 N 
HETATM   24  C   UNK     0      -7.249  -1.712  21.929  0.00  0.00     0.157 C 
BRANCH  23  25
HETATM   25  C   UNK     0      -4.655  -1.838  22.534  0.00  0.00    -0.004 A 
HETATM   26  C   UNK     0      -3.586  -2.255  21.507  0.00  0.00     0.111 A 
HETATM   27  C   UNK     0      -2.192  -1.604  21.539  0.00  0.00     0.039 A 
HETATM   28  C   UNK     0      -1.865  -0.536  22.599  0.00  0.00    -0.010 A 
HETATM   29  N   UNK     0      -0.940  -1.806  20.665  0.00  0.00    -0.304 N 
HETATM   30  C   UNK     0      -2.933  -0.118  23.626  0.00  0.00     0.048 A 
HETATM   31  C   UNK     0      -0.411  -0.077  22.380  0.00  0.00     0.030 A 
HETATM   32  C   UNK     0      -4.328  -0.769  23.594  0.00  0.00     0.057 A 
HETATM   33  C   UNK     0       0.339   0.980  23.210  0.00  0.00     0.070 C 
HETATM   34  N   UNK     0       0.161  -0.862  21.185  0.00  0.00    -0.304 N 
HETATM   35  HN  UNK     0       1.103  -0.773  20.805  1.00  0.00     0.186 HD
HETATM   36  HN  UNK     0      -0.854  -2.451  19.880  1.00  0.00     0.186 HD
ENDBRANCH  23  25
ENDBRANCH  17  23
ENDBRANCH   1  15
TORSDOF 7
ENDMDL
MODEL 18
REMARK VINA RESULT:      -5.9     11.561     15.566
REMARK  7 active torsions:
REMARK  status: ('A' for Active; 'I' for Inactive)
REMARK    1  A    between atoms: N_1  and  C_5 
REMARK    2  A    between atoms: N_1  and  C_6 
REMARK    3  A    between atoms: C_9  and  N_23 
REMARK    4  A    between atoms: C_10  and  N_23 
REMARK    5  A    between atoms: C_15  and  O_36 
REMARK    6  A    between atoms: O_18  and  C_19 
REMARK    7  A    between atoms: C_34  and  O_35 
ROOT
HETATM    1  N   UNK     0      -1.519  -4.183  21.487  0.00  0.00    -0.199 N 
HETATM    2  HN  UNK     0      -2.013  -4.414  20.625  1.00  0.00     0.183 HD
ENDROOT
BRANCH   1   3
HETATM    3  C   UNK     0      -1.035  -5.307  22.422  0.00  0.00     0.016 A 
HETATM    4  C   UNK     0      -0.787  -6.720  21.863  0.00  0.00     0.120 A 
HETATM    5  C   UNK     0      -0.303  -7.844  22.798  0.00  0.00     0.086 A 
HETATM    6  C   UNK     0      -0.066  -7.554  24.293  0.00  0.00     0.127 A 
HETATM    7  C   UNK     0      -0.314  -6.140  24.851  0.00  0.00     0.086 A 
HETATM    8  C   UNK     0      -0.798  -5.016  23.916  0.00  0.00     0.120 A 
BRANCH   5   9
HETATM    9  O   UNK     0      -0.055  -9.257  22.240  0.00  0.00    -0.357 OA
HETATM   10  C   UNK     0       0.691  -9.438  20.905  0.00  0.00     0.209 C 
ENDBRANCH   5   9
BRANCH   6  11
HETATM   11  O   UNK     0       0.418  -8.677  25.228  0.00  0.00    -0.351 OA
HETATM   12  C   UNK     0      -0.580  -9.382  26.166  0.00  0.00     0.210 C 
ENDBRANCH   6  11
BRANCH   7  13
HETATM   13  O   UNK     0      -0.078  -5.850  26.345  0.00  0.00    -0.357 OA
HETATM   14  C   UNK     0       1.355  -5.641  26.871  0.00  0.00     0.209 C 
ENDBRANCH   7  13
ENDBRANCH   1   3
BRANCH   1  15
HETATM   15  C   UNK     0      -1.257  -2.710  21.853  0.00  0.00     0.679 A 
HETATM   16  N   UNK     0      -2.151  -2.004  22.889  0.00  0.00    -0.180 N 
HETATM   17  C   UNK     0      -1.889  -0.531  23.255  0.00  0.00     0.100 A 
HETATM   18  HN  UNK     0      -2.916  -2.511  23.333  1.00  0.00     0.185 HD
HETATM   19  C   UNK     0      -0.734   0.235  22.585  0.00  0.00     0.097 A 
HETATM   20  C   UNK     0       0.160  -0.471  21.549  0.00  0.00     0.145 A 
HETATM   21  N   UNK     0      -0.102  -1.944  21.183  0.00  0.00    -0.226 N 
HETATM   22  HN  UNK     0       0.490  -2.412  20.497  1.00  0.00     0.177 HD
BRANCH  17  23
HETATM   23  N   UNK     0      -2.783   0.175  24.291  0.00  0.00    -0.347 N 
HETATM   24  C   UNK     0      -2.158   0.785  25.559  0.00  0.00     0.157 C 
BRANCH  23  25
HETATM   25  C   UNK     0      -4.303   0.271  24.059  0.00  0.00    -0.004 A 
HETATM   26  C   UNK     0      -4.867   0.240  22.626  0.00  0.00     0.111 A 
HETATM   27  C   UNK     0      -6.386   0.336  22.395  0.00  0.00     0.039 A 
HETATM   28  C   UNK     0      -7.341   0.464  23.595  0.00  0.00    -0.010 A 
HETATM   29  N   UNK     0      -7.235   0.332  21.109  0.00  0.00    -0.304 N 
HETATM   30  C   UNK     0      -6.778   0.495  25.028  0.00  0.00     0.048 A 
HETATM   31  C   UNK     0      -8.781   0.538  23.052  0.00  0.00     0.030 A 
HETATM   32  C   UNK     0      -5.259   0.399  25.260  0.00  0.00     0.057 A 
HETATM   33  C   UNK     0     -10.061   0.671  23.897  0.00  0.00     0.070 C 
HETATM   34  N   UNK     0      -8.715   0.457  21.516  0.00  0.00    -0.304 N 
HETATM   35  HN  UNK     0      -9.511   0.482  20.879  1.00  0.00     0.186 HD
HETATM   36  HN  UNK     0      -6.879   0.259  20.156  1.00  0.00     0.186 HD
ENDBRANCH  23  25
ENDBRANCH  17  23
ENDBRANCH   1  15
TORSDOF 7
ENDMDL
MODEL 19
REMARK VINA RESULT:      -5.8     11.870     13.532
REMARK  7 active torsions:
REMARK  status: ('A' for Active; 'I' for Inactive)
REMARK    1  A    between atoms: N_1  and  C_5 
REMARK    2  A    between atoms: N_1  and  C_6 
REMARK    3  A    between atoms: C_9  and  N_23 
REMARK    4  A    between atoms: C_10  and  N_23 
REMARK    5  A    between atoms: C_15  and  O_36 
REMARK    6  A    between atoms: O_18  and  C_19 
REMARK    7  A    between atoms: C_34  and  O_35 
ROOT
HETATM    1  N   UNK     0      -0.644  -4.470  22.256  0.00  0.00    -0.199 N 
HETATM    2  HN  UNK     0       0.050  -4.858  21.617  1.00  0.00     0.183 HD
ENDROOT
BRANCH   1   3
HETATM    3  C   UNK     0      -1.384  -3.169  21.892  0.00  0.00     0.016 A 
HETATM    4  C   UNK     0      -2.920  -3.164  21.778  0.00  0.00     0.120 A 
HETATM    5  C   UNK     0      -3.661  -1.864  21.414  0.00  0.00     0.086 A 
HETATM    6  C   UNK     0      -2.865  -0.568  21.165  0.00  0.00     0.127 A 
HETATM    7  C   UNK     0      -1.329  -0.574  21.279  0.00  0.00     0.086 A 
HETATM    8  C   UNK     0      -0.589  -1.874  21.643  0.00  0.00     0.120 A 
BRANCH   5   9
HETATM    9  O   UNK     0      -5.196  -1.858  21.300  0.00  0.00    -0.357 OA
HETATM   10  C   UNK     0      -6.056  -1.442  22.508  0.00  0.00     0.209 C 
ENDBRANCH   5   9
BRANCH   6  11
HETATM   11  O   UNK     0      -3.606   0.732  20.801  0.00  0.00    -0.351 OA
HETATM   12  C   UNK     0      -4.161   1.639  21.915  0.00  0.00     0.210 C 
ENDBRANCH   6  11
BRANCH   7  13
HETATM   13  O   UNK     0      -0.535   0.721  21.030  0.00  0.00    -0.357 OA
HETATM   14  C   UNK     0      -0.490   1.818  22.111  0.00  0.00     0.209 C 
ENDBRANCH   7  13
ENDBRANCH   1   3
BRANCH   1  15
HETATM   15  C   UNK     0      -0.950  -5.184  23.586  0.00  0.00     0.679 A 
HETATM   16  N   UNK     0      -2.001  -6.309  23.631  0.00  0.00    -0.180 N 
HETATM   17  C   UNK     0      -2.307  -7.024  24.959  0.00  0.00     0.100 A 
HETATM   18  HN  UNK     0      -2.493  -6.581  22.780  1.00  0.00     0.185 HD
HETATM   19  C   UNK     0      -1.563  -6.613  26.244  0.00  0.00     0.097 A 
HETATM   20  C   UNK     0      -0.513  -5.488  26.199  0.00  0.00     0.145 A 
HETATM   21  N   UNK     0      -0.206  -4.774  24.869  0.00  0.00    -0.226 N 
HETATM   22  HN  UNK     0       0.490  -4.028  24.839  1.00  0.00     0.177 HD
BRANCH  17  23
HETATM   23  N   UNK     0      -3.358  -8.149  25.004  0.00  0.00    -0.347 N 
HETATM   24  C   UNK     0      -4.846  -7.822  24.785  0.00  0.00     0.157 C 
BRANCH  23  25
HETATM   25  C   UNK     0      -2.920  -9.602  25.269  0.00  0.00    -0.004 A 
HETATM   26  C   UNK     0      -1.426  -9.937  25.438  0.00  0.00     0.111 A 
HETATM   27  C   UNK     0      -0.988 -11.389  25.703  0.00  0.00     0.039 A 
HETATM   28  C   UNK     0      -2.044 -12.506  25.798  0.00  0.00    -0.010 A 
HETATM   29  N   UNK     0       0.399 -12.025  25.912  0.00  0.00    -0.304 N 
HETATM   30  C   UNK     0      -3.537 -12.172  25.629  0.00  0.00     0.048 A 
HETATM   31  C   UNK     0      -1.309 -13.833  26.066  0.00  0.00     0.030 A 
HETATM   32  C   UNK     0      -3.975 -10.719  25.364  0.00  0.00     0.057 A 
HETATM   33  C   UNK     0      -1.968 -15.215  26.234  0.00  0.00     0.070 C 
HETATM   34  N   UNK     0       0.200 -13.536  26.136  0.00  0.00    -0.304 N 
HETATM   35  HN  UNK     0       0.939 -14.219  26.302  1.00  0.00     0.186 HD
HETATM   36  HN  UNK     0       1.292 -11.532  25.903  1.00  0.00     0.186 HD
ENDBRANCH  23  25
ENDBRANCH  17  23
ENDBRANCH   1  15
TORSDOF 7
ENDMDL
MODEL 20
REMARK VINA RESULT:      -5.8     12.628     14.161
REMARK  7 active torsions:
REMARK  status: ('A' for Active; 'I' for Inactive)
REMARK    1  A    between atoms: N_1  and  C_5 
REMARK    2  A    between atoms: N_1  and  C_6 
REMARK    3  A    between atoms: C_9  and  N_23 
REMARK    4  A    between atoms: C_10  and  N_23 
REMARK    5  A    between atoms: C_15  and  O_36 
REMARK    6  A    between atoms: O_18  and  C_19 
REMARK    7  A    between atoms: C_34  and  O_35 
ROOT
HETATM    1  N   UNK     0      -1.621  -3.747  22.724  0.00  0.00    -0.199 N 
HETATM    2  HN  UNK     0      -0.826  -4.092  22.186  1.00  0.00     0.183 HD
ENDROOT
BRANCH   1   3
HETATM    3  C   UNK     0      -2.437  -2.547  22.209  0.00  0.00     0.016 A 
HETATM    4  C   UNK     0      -1.752  -1.184  21.996  0.00  0.00     0.120 A 
HETATM    5  C   UNK     0      -2.569   0.016  21.481  0.00  0.00     0.086 A 
HETATM    6  C   UNK     0      -4.070  -0.148  21.178  0.00  0.00     0.127 A 
HETATM    7  C   UNK     0      -4.755  -1.511  21.390  0.00  0.00     0.086 A 
HETATM    8  C   UNK     0      -3.939  -2.711  21.906  0.00  0.00     0.120 A 
BRANCH   5   9
HETATM    9  O   UNK     0      -1.884   1.378  21.269  0.00  0.00    -0.357 OA
HETATM   10  C   UNK     0      -0.714   1.802  22.176  0.00  0.00     0.209 C 
ENDBRANCH   5   9
BRANCH   6  11
HETATM   11  O   UNK     0      -4.886   1.052  20.663  0.00  0.00    -0.351 OA
HETATM   12  C   UNK     0      -5.685   1.922  21.652  0.00  0.00     0.210 C 
ENDBRANCH   6  11
BRANCH   7  13
HETATM   13  O   UNK     0      -6.255  -1.674  21.087  0.00  0.00    -0.357 OA
HETATM   14  C   UNK     0      -7.281  -1.639  22.236  0.00  0.00     0.209 C 
ENDBRANCH   7  13
ENDBRANCH   1   3
BRANCH   1  15
HETATM   15  C   UNK     0      -2.005  -4.426  24.052  0.00  0.00     0.679 A 
HETATM   16  N   UNK     0      -2.828  -5.728  24.042  0.00  0.00    -0.180 N 
HETATM   17  C   UNK     0      -3.212  -6.407  25.369  0.00  0.00     0.100 A 
HETATM   18  HN  UNK     0      -3.118  -6.141  23.155  1.00  0.00     0.185 HD
HETATM   19  C   UNK     0      -2.773  -5.784  26.707  0.00  0.00     0.097 A 
HETATM   20  C   UNK     0      -1.950  -4.482  26.718  0.00  0.00     0.145 A 
HETATM   21  N   UNK     0      -1.566  -3.803  25.390  0.00  0.00    -0.226 N 
HETATM   22  HN  UNK     0      -1.022  -2.941  25.397  1.00  0.00     0.177 HD
BRANCH  17  23
HETATM   23  N   UNK     0      -4.034  -7.709  25.358  0.00  0.00    -0.347 N 
HETATM   24  C   UNK     0      -5.568  -7.650  25.239  0.00  0.00     0.157 C 
BRANCH  23  25
HETATM   25  C   UNK     0      -3.322  -9.071  25.467  0.00  0.00    -0.004 A 
HETATM   26  C   UNK     0      -1.793  -9.129  25.643  0.00  0.00     0.111 A 
HETATM   27  C   UNK     0      -1.082 -10.490  25.752  0.00  0.00     0.039 A 
HETATM   28  C   UNK     0      -1.899 -11.793  25.685  0.00  0.00    -0.010 A 
HETATM   29  N   UNK     0       0.401 -10.866  25.928  0.00  0.00    -0.304 N 
HETATM   30  C   UNK     0      -3.428 -11.736  25.509  0.00  0.00     0.048 A 
HETATM   31  C   UNK     0      -0.921 -12.976  25.821  0.00  0.00     0.030 A 
HETATM   32  C   UNK     0      -4.139 -10.374  25.401  0.00  0.00     0.057 A 
HETATM   33  C   UNK     0      -1.298 -14.468  25.808  0.00  0.00     0.070 C 
HETATM   34  N   UNK     0       0.500 -12.402  25.971  0.00  0.00    -0.304 N 
HETATM   35  HN  UNK     0       1.357 -12.945  26.080  1.00  0.00     0.186 HD
HETATM   36  HN  UNK     0       1.181 -10.213  26.004  1.00  0.00     0.186 HD
ENDBRANCH  23  25
ENDBRANCH  17  23
ENDBRANCH   1  15
TORSDOF 7
ENDMDL
