REMARK  7 active torsions:
REMARK  status: ('A' for Active; 'I' for Inactive)
REMARK    1  A    between atoms: N_1  and  C_5 
REMARK    2  A    between atoms: N_1  and  C_6 
REMARK    3  A    between atoms: C_9  and  N_23 
REMARK    4  A    between atoms: C_10  and  N_23 
REMARK    5  A    between atoms: C_15  and  O_36 
REMARK    6  A    between atoms: O_18  and  C_19 
REMARK    7  A    between atoms: C_34  and  O_35 
ROOT
HETATM    1  N   UNK     0       2.634  -1.051   0.000  0.00  0.00    -0.199 N 
HETATM    2  HN  UNK     0       3.517  -0.541   0.000  1.00  0.00     0.183 HD
ENDROOT
BRANCH   1   3
HETATM    3  C   UNK     0       2.634  -2.591   0.000  0.00  0.00     0.016 A 
HETATM    4  C   UNK     0       3.968  -3.361   0.000  0.00  0.00     0.120 A 
HETATM    5  C   UNK     0       3.968  -4.901   0.000  0.00  0.00     0.086 A 
HETATM    6  C   UNK     0       2.634  -5.671   0.000  0.00  0.00     0.127 A 
HETATM    7  C   UNK     0       1.300  -4.901   0.000  0.00  0.00     0.086 A 
HETATM    8  C   UNK     0       1.300  -3.361   0.000  0.00  0.00     0.120 A 
BRANCH   5   9
HETATM    9  O   UNK     0       5.301  -5.671   0.000  0.00  0.00    -0.357 OA
HETATM   10  C   UNK     0       6.635  -4.901   0.000  0.00  0.00     0.209 C 
ENDBRANCH   5   9
BRANCH   6  11
HETATM   11  O   UNK     0       2.634  -7.211   0.000  0.00  0.00    -0.351 OA
HETATM   12  C   UNK     0       3.968  -7.981   0.000  0.00  0.00     0.210 C 
ENDBRANCH   6  11
BRANCH   7  13
HETATM   13  O   UNK     0      -0.033  -5.671   0.000  0.00  0.00    -0.357 OA
HETATM   14  C   UNK     0      -1.367  -4.901   0.000  0.00  0.00     0.209 C 
ENDBRANCH   7  13
ENDBRANCH   1   3
BRANCH   1  15
HETATM   15  C   UNK     0       1.300  -0.281   0.000  0.00  0.00     0.679 A 
HETATM   16  N   UNK     0       1.300   1.259   0.000  0.00  0.00    -0.180 N 
HETATM   17  C   UNK     0      -0.033   2.029   0.000  0.00  0.00     0.100 A 
HETATM   18  HN  UNK     0       2.183   1.769   0.000  1.00  0.00     0.185 HD
HETATM   19  C   UNK     0      -1.367   1.259   0.000  0.00  0.00     0.097 A 
HETATM   20  C   UNK     0      -1.367  -0.281   0.000  0.00  0.00     0.145 A 
HETATM   21  N   UNK     0      -0.033  -1.051   0.000  0.00  0.00    -0.226 N 
HETATM   22  HN  UNK     0      -0.033  -2.071   0.000  1.00  0.00     0.177 HD
BRANCH  17  23
HETATM   23  N   UNK     0      -0.033   3.569   0.000  0.00  0.00    -0.347 N 
HETATM   24  C   UNK     0       1.300   4.339   0.000  0.00  0.00     0.157 C 
BRANCH  23  25
HETATM   25  C   UNK     0      -1.367   4.339   0.000  0.00  0.00    -0.004 A 
HETATM   26  C   UNK     0      -2.701   3.569   0.000  0.00  0.00     0.111 A 
HETATM   27  C   UNK     0      -4.034   4.339   0.000  0.00  0.00     0.039 A 
HETATM   28  C   UNK     0      -4.034   5.879   0.000  0.00  0.00    -0.010 A 
HETATM   29  N   UNK     0      -5.499   3.863   0.000  0.00  0.00    -0.304 N 
HETATM   30  C   UNK     0      -2.701   6.649   0.000  0.00  0.00     0.048 A 
HETATM   31  C   UNK     0      -5.499   6.355   0.000  0.00  0.00     0.030 A 
HETATM   32  C   UNK     0      -1.367   5.879   0.000  0.00  0.00     0.057 A 
HETATM   33  C   UNK     0      -5.975   7.819   0.000  0.00  0.00     0.070 C 
HETATM   34  N   UNK     0      -6.404   5.109   0.000  0.00  0.00    -0.304 N 
HETATM   35  HN  UNK     0      -7.424   5.109   0.000  1.00  0.00     0.186 HD
HETATM   36  HN  UNK     0      -5.814   2.893   0.000  1.00  0.00     0.186 HD
ENDBRANCH  23  25
ENDBRANCH  17  23
ENDBRANCH   1  15
TORSDOF 7
