MODEL 4
REMARK VINA RESULT:      -7.9      9.033     11.336
REMARK  11 active torsions:
REMARK  status: ('A' for Active; 'I' for Inactive)
REMARK    1  A    between atoms: O_2  and  C_21 
REMARK    2  A    between atoms: O_4  and  C_28 
REMARK    3  A    between atoms: N_6  and  C_13 
REMARK    4  A    between atoms: N_6  and  C_19 
REMARK    5  A    between atoms: N_6  and  C_20 
REMARK    6  A    between atoms: N_9  and  C_17 
REMARK    7  A    between atoms: N_9  and  C_21 
REMARK    8  A    between atoms: C_13  and  C_17 
REMARK    9  A    between atoms: C_14  and  C_21 
REMARK   10  A    between atoms: C_16  and  C_23 
REMARK   11  A    between atoms: C_22  and  C_23 
ROOT
HETATM    1  F   UNK     0       0.378  -9.207  19.038  0.00  0.00    -0.215 F 
HETATM    2  N   UNK     0      -0.221  -6.946  24.699  0.00  0.00    -0.340 N 
HETATM    3  HN  UNK     0      -0.198  -7.338  25.641  1.00  0.00     0.168 HD
HETATM    4  C   UNK     0      -0.400  -5.338  22.820  0.00  0.00     0.007 A 
HETATM    5  C   UNK     0      -0.153  -6.727  22.227  0.00  0.00    -0.019 A 
HETATM    6  C   UNK     0      -0.042  -7.726  23.394  0.00  0.00     0.019 A 
HETATM    7  C   UNK     0      -0.443  -5.472  24.345  0.00  0.00     0.147 A 
HETATM    8  C   UNK     0      -0.013  -7.221  20.775  0.00  0.00     0.106 A 
HETATM    9  C   UNK     0       0.210  -9.218  23.109  0.00  0.00     0.064 A 
HETATM   10  C   UNK     0       0.238  -8.713  20.491  0.00  0.00     0.076 A 
HETATM   11  C   UNK     0       0.350  -9.712  21.658  0.00  0.00     0.072 A 
ENDROOT
BRANCH   4  12
HETATM   12  C   UNK     0      -0.576  -4.032  22.023  0.00  0.00     0.101 C 
BRANCH  12  13
HETATM   13  C   UNK     0      -1.949  -3.336  21.979  0.00  0.00     0.020 A 
HETATM   14  N   UNK     0      -3.194  -3.737  22.790  0.00  0.00    -0.362 N 
HETATM   15  C   UNK     0      -4.332  -2.764  22.429  0.00  0.00     0.020 A 
HETATM   16  HN  UNK     0      -3.255  -4.512  23.451  1.00  0.00     0.165 HD
HETATM   17  C   UNK     0      -3.790  -1.761  21.394  0.00  0.00     0.044 A 
HETATM   18  C   UNK     0      -5.761  -2.790  23.002  0.00  0.00     0.069 C 
HETATM   19  C   UNK     0      -2.317  -2.114  21.116  0.00  0.00    -0.023 A 
HETATM   20  C   UNK     0      -1.377  -1.376  20.145  0.00  0.00     0.051 C 
BRANCH  17  21
HETATM   21  C   UNK     0      -4.581  -0.608  20.750  0.00  0.00     0.148 C 
BRANCH  21  22
HETATM   22  O   UNK     0      -5.599  -0.902  19.632  0.00  0.00    -0.346 OA
HETATM   23  HO  UNK     0      -5.341  -1.422  18.880  1.00  0.00     0.219 HD
ENDBRANCH  21  22
BRANCH  21  24
HETATM   24  N   UNK     0      -4.356   0.840  21.225  0.00  0.00    -0.369 N 
HETATM   25  HN  UNK     0      -3.905   1.515  20.606  1.00  0.00     0.161 HD
BRANCH  24  26
HETATM   26  C   UNK     0      -4.810   1.268  22.632  0.00  0.00     0.141 C 
BRANCH  26  27
HETATM   27  C   UNK     0      -3.886   2.132  23.510  0.00  0.00     0.136 C 
BRANCH  27  28
HETATM   28  N   UNK     0      -2.542   1.564  24.006  0.00  0.00    -0.412 N 
BRANCH  28  29
HETATM   29  C   UNK     0      -2.523   0.408  25.023  0.00  0.00     0.112 C 
HETATM   30  C   UNK     0      -1.732  -0.876  24.714  0.00  0.00     0.026 C 
ENDBRANCH  28  29
BRANCH  28  31
HETATM   31  C   UNK     0      -1.219   2.153  23.484  0.00  0.00     0.112 C 
HETATM   32  C   UNK     0      -0.673   1.721  22.109  0.00  0.00     0.026 C 
ENDBRANCH  28  31
ENDBRANCH  27  28
ENDBRANCH  26  27
ENDBRANCH  24  26
ENDBRANCH  21  24
ENDBRANCH  17  21
ENDBRANCH  12  13
ENDBRANCH   4  12
BRANCH   7  33
HETATM   33  O   UNK     0      -0.669  -4.325  25.347  0.00  0.00    -0.346 OA
HETATM   34  HO  UNK     0      -0.238  -4.226  26.188  1.00  0.00     0.219 HD
ENDBRANCH   7  33
TORSDOF 11
ENDMDL
