MODEL 6
REMARK VINA RESULT:      -7.4      8.935     11.884
REMARK  11 active torsions:
REMARK  status: ('A' for Active; 'I' for Inactive)
REMARK    1  A    between atoms: O_2  and  C_21 
REMARK    2  A    between atoms: O_4  and  C_28 
REMARK    3  A    between atoms: N_6  and  C_13 
REMARK    4  A    between atoms: N_6  and  C_19 
REMARK    5  A    between atoms: N_6  and  C_20 
REMARK    6  A    between atoms: N_9  and  C_17 
REMARK    7  A    between atoms: N_9  and  C_21 
REMARK    8  A    between atoms: C_13  and  C_17 
REMARK    9  A    between atoms: C_14  and  C_21 
REMARK   10  A    between atoms: C_16  and  C_23 
REMARK   11  A    between atoms: C_22  and  C_23 
ROOT
HETATM    1  F   UNK     0       1.254  -8.823  18.851  0.00  0.00    -0.215 F 
HETATM    2  N   UNK     0      -0.786  -7.467  24.464  0.00  0.00    -0.340 N 
HETATM    3  HN  UNK     0      -0.965  -7.999  25.317  1.00  0.00     0.168 HD
HETATM    4  C   UNK     0      -0.602  -5.594  22.851  0.00  0.00     0.007 A 
HETATM    5  C   UNK     0      -0.147  -6.871  22.141  0.00  0.00    -0.019 A 
HETATM    6  C   UNK     0      -0.262  -8.035  23.143  0.00  0.00     0.019 A 
HETATM    7  C   UNK     0      -0.996  -5.960  24.284  0.00  0.00     0.147 A 
HETATM    8  C   UNK     0       0.358  -7.134  20.710  0.00  0.00     0.106 A 
HETATM    9  C   UNK     0       0.129  -9.461  22.714  0.00  0.00     0.064 A 
HETATM   10  C   UNK     0       0.749  -8.560  20.282  0.00  0.00     0.076 A 
HETATM   11  C   UNK     0       0.634  -9.724  21.284  0.00  0.00     0.072 A 
ENDROOT
BRANCH   4  12
HETATM   12  C   UNK     0      -0.654  -4.184  22.232  0.00  0.00     0.101 C 
BRANCH  12  13
HETATM   13  C   UNK     0      -2.000  -3.446  22.110  0.00  0.00     0.020 A 
HETATM   14  N   UNK     0      -3.293  -3.790  22.872  0.00  0.00    -0.362 N 
HETATM   15  C   UNK     0      -4.381  -2.790  22.437  0.00  0.00     0.020 A 
HETATM   16  HN  UNK     0      -3.409  -4.546  23.546  1.00  0.00     0.165 HD
HETATM   17  C   UNK     0      -3.761  -1.829  21.406  0.00  0.00     0.044 A 
HETATM   18  C   UNK     0      -5.835  -2.758  22.944  0.00  0.00     0.069 C 
HETATM   19  C   UNK     0      -2.289  -2.234  21.205  0.00  0.00    -0.023 A 
HETATM   20  C   UNK     0      -1.282  -1.548  20.262  0.00  0.00     0.051 C 
BRANCH  17  21
HETATM   21  C   UNK     0      -4.484  -0.667  20.702  0.00  0.00     0.148 C 
BRANCH  21  22
HETATM   22  O   UNK     0      -5.515  -0.959  19.596  0.00  0.00    -0.346 OA
HETATM   23  HO  UNK     0      -6.190  -0.321  19.395  1.00  0.00     0.219 HD
ENDBRANCH  21  22
BRANCH  21  24
HETATM   24  N   UNK     0      -4.178   0.788  21.104  0.00  0.00    -0.369 N 
HETATM   25  HN  UNK     0      -4.614   1.560  20.599  1.00  0.00     0.161 HD
BRANCH  24  26
HETATM   26  C   UNK     0      -3.212   1.077  22.268  0.00  0.00     0.141 C 
BRANCH  26  27
HETATM   27  C   UNK     0      -3.648   2.006  23.417  0.00  0.00     0.136 C 
BRANCH  27  28
HETATM   28  N   UNK     0      -5.145   2.195  23.729  0.00  0.00    -0.412 N 
BRANCH  28  29
HETATM   29  C   UNK     0      -5.897   3.422  23.179  0.00  0.00     0.112 C 
HETATM   30  C   UNK     0      -6.632   3.332  21.829  0.00  0.00     0.026 C 
ENDBRANCH  28  29
BRANCH  28  31
HETATM   31  C   UNK     0      -5.888   1.157  24.590  0.00  0.00     0.112 C 
HETATM   32  C   UNK     0      -7.410   1.278  24.797  0.00  0.00     0.026 C 
ENDBRANCH  28  31
ENDBRANCH  27  28
ENDBRANCH  26  27
ENDBRANCH  24  26
ENDBRANCH  21  24
ENDBRANCH  17  21
ENDBRANCH  12  13
ENDBRANCH   4  12
BRANCH   7  33
HETATM   33  O   UNK     0      -1.513  -4.985  25.358  0.00  0.00    -0.346 OA
HETATM   34  HO  UNK     0      -1.580  -4.041  25.269  1.00  0.00     0.219 HD
ENDBRANCH   7  33
TORSDOF 11
ENDMDL
