MODEL 13
REMARK VINA RESULT:      -6.5      8.610     12.425
REMARK  11 active torsions:
REMARK  status: ('A' for Active; 'I' for Inactive)
REMARK    1  A    between atoms: O_2  and  C_21 
REMARK    2  A    between atoms: O_4  and  C_28 
REMARK    3  A    between atoms: N_6  and  C_13 
REMARK    4  A    between atoms: N_6  and  C_19 
REMARK    5  A    between atoms: N_6  and  C_20 
REMARK    6  A    between atoms: N_9  and  C_17 
REMARK    7  A    between atoms: N_9  and  C_21 
REMARK    8  A    between atoms: C_13  and  C_17 
REMARK    9  A    between atoms: C_14  and  C_21 
REMARK   10  A    between atoms: C_16  and  C_23 
REMARK   11  A    between atoms: C_22  and  C_23 
ROOT
HETATM    1  F   UNK     0      -2.865  -2.203   6.418  0.00  0.00    -0.215 F 
HETATM    2  N   UNK     0      -0.065   2.948   8.193  0.00  0.00    -0.340 N 
HETATM    3  HN  UNK     0      -0.215   3.634   8.934  1.00  0.00     0.168 HD
HETATM    4  C   UNK     0       0.893   1.763   6.237  0.00  0.00     0.007 A 
HETATM    5  C   UNK     0      -0.323   0.967   6.719  0.00  0.00    -0.019 A 
HETATM    6  C   UNK     0      -0.918   1.703   7.934  0.00  0.00     0.019 A 
HETATM    7  C   UNK     0       1.052   2.985   7.146  0.00  0.00     0.147 A 
HETATM    8  C   UNK     0      -0.972  -0.335   6.214  0.00  0.00     0.106 A 
HETATM    9  C   UNK     0      -2.162   1.137   8.643  0.00  0.00     0.064 A 
HETATM   10  C   UNK     0      -2.216  -0.900   6.923  0.00  0.00     0.076 A 
HETATM   11  C   UNK     0      -2.811  -0.164   8.138  0.00  0.00     0.072 A 
ENDROOT
BRANCH   4  12
HETATM   12  C   UNK     0       1.798   1.399   5.046  0.00  0.00     0.101 C 
BRANCH  12  13
HETATM   13  C   UNK     0       3.267   1.003   5.288  0.00  0.00     0.020 A 
HETATM   14  N   UNK     0       4.494   1.597   4.574  0.00  0.00    -0.362 N 
HETATM   15  C   UNK     0       5.751   0.903   5.132  0.00  0.00     0.020 A 
HETATM   16  HN  UNK     0       4.478   2.322   3.857  1.00  0.00     0.165 HD
HETATM   17  C   UNK     0       5.300  -0.120   6.191  0.00  0.00     0.044 A 
HETATM   18  C   UNK     0       7.204   1.184   4.705  0.00  0.00     0.069 C 
HETATM   19  C   UNK     0       3.765  -0.058   6.287  0.00  0.00    -0.023 A 
HETATM   20  C   UNK     0       2.882  -0.909   7.220  0.00  0.00     0.051 C 
BRANCH  17  21
HETATM   21  C   UNK     0       6.223  -1.041   7.009  0.00  0.00     0.148 C 
BRANCH  21  22
HETATM   22  O   UNK     0       6.064  -2.571   6.915  0.00  0.00    -0.346 OA
HETATM   23  HO  UNK     0       6.669  -3.079   6.387  1.00  0.00     0.219 HD
ENDBRANCH  21  22
BRANCH  21  24
HETATM   24  N   UNK     0       7.304  -0.434   7.922  0.00  0.00    -0.369 N 
HETATM   25  HN  UNK     0       7.930   0.287   7.563  1.00  0.00     0.161 HD
BRANCH  24  26
HETATM   26  C   UNK     0       7.442  -0.917   9.378  0.00  0.00     0.141 C 
BRANCH  26  27
HETATM   27  C   UNK     0       6.267  -1.640  10.063  0.00  0.00     0.136 C 
BRANCH  27  28
HETATM   28  N   UNK     0       6.350  -3.153  10.341  0.00  0.00    -0.412 N 
BRANCH  28  29
HETATM   29  C   UNK     0       7.703  -3.798  10.696  0.00  0.00     0.112 C 
HETATM   30  C   UNK     0       9.000  -3.261  10.064  0.00  0.00     0.026 C 
ENDBRANCH  28  29
BRANCH  28  31
HETATM   31  C   UNK     0       5.080  -4.020  10.263  0.00  0.00     0.112 C 
HETATM   32  C   UNK     0       3.935  -3.624   9.312  0.00  0.00     0.026 C 
ENDBRANCH  28  31
ENDBRANCH  27  28
ENDBRANCH  26  27
ENDBRANCH  24  26
ENDBRANCH  21  24
ENDBRANCH  17  21
ENDBRANCH  12  13
ENDBRANCH   4  12
BRANCH   7  33
HETATM   33  O   UNK     0       2.145   4.063   7.028  0.00  0.00    -0.346 OA
HETATM   34  HO  UNK     0       2.886   4.044   6.433  1.00  0.00     0.219 HD
ENDBRANCH   7  33
TORSDOF 11
ENDMDL
