MODEL 15
REMARK VINA RESULT:      -6.5      6.384     13.090
REMARK  11 active torsions:
REMARK  status: ('A' for Active; 'I' for Inactive)
REMARK    1  A    between atoms: O_2  and  C_21 
REMARK    2  A    between atoms: O_4  and  C_28 
REMARK    3  A    between atoms: N_6  and  C_13 
REMARK    4  A    between atoms: N_6  and  C_19 
REMARK    5  A    between atoms: N_6  and  C_20 
REMARK    6  A    between atoms: N_9  and  C_17 
REMARK    7  A    between atoms: N_9  and  C_21 
REMARK    8  A    between atoms: C_13  and  C_17 
REMARK    9  A    between atoms: C_14  and  C_21 
REMARK   10  A    between atoms: C_16  and  C_23 
REMARK   11  A    between atoms: C_22  and  C_23 
ROOT
HETATM    1  F   UNK     0       5.341   3.361   4.503  0.00  0.00    -0.215 F 
HETATM    2  N   UNK     0      -0.549   1.789   5.092  0.00  0.00    -0.340 N 
HETATM    3  HN  UNK     0      -1.442   2.246   4.903  1.00  0.00     0.168 HD
HETATM    4  C   UNK     0       1.138   0.107   5.778  0.00  0.00     0.007 A 
HETATM    5  C   UNK     0       1.886   1.348   5.285  0.00  0.00    -0.019 A 
HETATM    6  C   UNK     0       0.838   2.393   4.860  0.00  0.00     0.019 A 
HETATM    7  C   UNK     0      -0.364   0.378   5.659  0.00  0.00     0.147 A 
HETATM    8  C   UNK     0       3.388   1.671   5.166  0.00  0.00     0.106 A 
HETATM    9  C   UNK     0       1.291   3.761   4.315  0.00  0.00     0.064 A 
HETATM   10  C   UNK     0       3.840   3.038   4.622  0.00  0.00     0.076 A 
HETATM   11  C   UNK     0       2.792   4.083   4.196  0.00  0.00     0.072 A 
ENDROOT
BRANCH   4  12
HETATM   12  C   UNK     0       1.784  -1.190   6.301  0.00  0.00     0.101 C 
BRANCH  12  13
HETATM   13  C   UNK     0       3.081  -1.124   7.129  0.00  0.00     0.020 A 
HETATM   14  N   UNK     0       3.728   0.151   7.698  0.00  0.00    -0.362 N 
HETATM   15  C   UNK     0       5.005  -0.260   8.454  0.00  0.00     0.020 A 
HETATM   16  HN  UNK     0       3.374   1.102   7.593  1.00  0.00     0.165 HD
HETATM   17  C   UNK     0       5.148  -1.790   8.352  0.00  0.00     0.044 A 
HETATM   18  C   UNK     0       5.972   0.692   9.183  0.00  0.00     0.069 C 
HETATM   19  C   UNK     0       3.958  -2.324   7.534  0.00  0.00    -0.023 A 
HETATM   20  C   UNK     0       3.692  -3.799   7.181  0.00  0.00     0.051 C 
BRANCH  17  21
HETATM   21  C   UNK     0       6.280  -2.636   8.962  0.00  0.00     0.148 C 
BRANCH  21  22
HETATM   22  O   UNK     0       7.673  -2.648   8.305  0.00  0.00    -0.346 OA
HETATM   23  HO  UNK     0       8.448  -2.783   8.837  1.00  0.00     0.219 HD
ENDBRANCH  21  22
BRANCH  21  24
HETATM   24  N   UNK     0       6.019  -3.472  10.229  0.00  0.00    -0.369 N 
HETATM   25  HN  UNK     0       6.523  -3.261  11.092  1.00  0.00     0.161 HD
BRANCH  24  26
HETATM   26  C   UNK     0       4.999  -4.624  10.195  0.00  0.00     0.141 C 
BRANCH  26  27
HETATM   27  C   UNK     0       3.568  -4.401  10.719  0.00  0.00     0.136 C 
BRANCH  27  28
HETATM   28  N   UNK     0       2.846  -5.523  11.491  0.00  0.00    -0.412 N 
BRANCH  28  29
HETATM   29  C   UNK     0       2.656  -5.409  13.015  0.00  0.00     0.112 C 
HETATM   30  C   UNK     0       2.607  -6.682  13.881  0.00  0.00     0.026 C 
ENDBRANCH  28  29
BRANCH  28  31
HETATM   31  C   UNK     0       2.315  -6.756  10.737  0.00  0.00     0.112 C 
HETATM   32  C   UNK     0       0.912  -7.306  11.054  0.00  0.00     0.026 C 
ENDBRANCH  28  31
ENDBRANCH  27  28
ENDBRANCH  26  27
ENDBRANCH  24  26
ENDBRANCH  21  24
ENDBRANCH  17  21
ENDBRANCH  12  13
ENDBRANCH   4  12
BRANCH   7  33
HETATM   33  O   UNK     0      -1.492  -0.598   6.042  0.00  0.00    -0.346 OA
HETATM   34  HO  UNK     0      -2.162  -0.934   5.458  1.00  0.00     0.219 HD
ENDBRANCH   7  33
TORSDOF 11
ENDMDL
