MODEL 12
REMARK VINA RESULT:      -6.5      6.035     10.584
REMARK  11 active torsions:
REMARK  status: ('A' for Active; 'I' for Inactive)
REMARK    1  A    between atoms: O_2  and  C_21 
REMARK    2  A    between atoms: O_4  and  C_28 
REMARK    3  A    between atoms: N_6  and  C_13 
REMARK    4  A    between atoms: N_6  and  C_19 
REMARK    5  A    between atoms: N_6  and  C_20 
REMARK    6  A    between atoms: N_9  and  C_17 
REMARK    7  A    between atoms: N_9  and  C_21 
REMARK    8  A    between atoms: C_13  and  C_17 
REMARK    9  A    between atoms: C_14  and  C_21 
REMARK   10  A    between atoms: C_16  and  C_23 
REMARK   11  A    between atoms: C_22  and  C_23 
ROOT
HETATM    1  F   UNK     0      -5.838  -8.508  25.558  0.00  0.00    -0.215 F 
HETATM    2  N   UNK     0      -2.780 -13.815  25.596  0.00  0.00    -0.340 N 
HETATM    3  HN  UNK     0      -3.036 -14.798  25.497  1.00  0.00     0.168 HD
HETATM    4  C   UNK     0      -1.448 -11.747  25.904  0.00  0.00     0.007 A 
HETATM    5  C   UNK     0      -2.915 -11.341  25.744  0.00  0.00    -0.019 A 
HETATM    6  C   UNK     0      -3.742 -12.626  25.552  0.00  0.00     0.019 A 
HETATM    7  C   UNK     0      -1.364 -13.273  25.813  0.00  0.00     0.147 A 
HETATM    8  C   UNK     0      -3.614  -9.968  25.746  0.00  0.00     0.106 A 
HETATM    9  C   UNK     0      -5.268 -12.538  25.362  0.00  0.00     0.064 A 
HETATM   10  C   UNK     0      -5.139  -9.881  25.556  0.00  0.00     0.076 A 
HETATM   11  C   UNK     0      -5.966 -11.166  25.364  0.00  0.00     0.072 A 
ENDROOT
BRANCH   4  12
HETATM   12  C   UNK     0      -0.262 -10.788  26.120  0.00  0.00     0.101 C 
BRANCH  12  13
HETATM   13  C   UNK     0      -0.367  -9.320  25.667  0.00  0.00     0.020 A 
HETATM   14  N   UNK     0      -0.761  -8.125  26.553  0.00  0.00    -0.362 N 
HETATM   15  C   UNK     0      -0.733  -6.856  25.680  0.00  0.00     0.020 A 
HETATM   16  HN  UNK     0      -0.999  -8.166  27.544  1.00  0.00     0.165 HD
HETATM   17  C   UNK     0      -0.322  -7.267  24.254  0.00  0.00     0.044 A 
HETATM   18  C   UNK     0      -1.060  -5.426  26.151  0.00  0.00     0.069 C 
HETATM   19  C   UNK     0      -0.096  -8.790  24.246  0.00  0.00    -0.023 A 
HETATM   20  C   UNK     0       0.328  -9.636  23.030  0.00  0.00     0.051 C 
BRANCH  17  21
HETATM   21  C   UNK     0      -0.165  -6.322  23.050  0.00  0.00     0.148 C 
BRANCH  21  22
HETATM   22  O   UNK     0       0.546  -4.966  23.221  0.00  0.00    -0.346 OA
HETATM   23  HO  UNK     0       0.613  -4.572  24.083  1.00  0.00     0.219 HD
ENDBRANCH  21  22
BRANCH  21  24
HETATM   24  N   UNK     0      -0.719  -6.732  21.672  0.00  0.00    -0.369 N 
HETATM   25  HN  UNK     0      -1.725  -6.723  21.503  1.00  0.00     0.161 HD
BRANCH  24  26
HETATM   26  C   UNK     0       0.247  -7.156  20.550  0.00  0.00     0.141 C 
BRANCH  26  27
HETATM   27  C   UNK     0      -0.302  -7.816  19.271  0.00  0.00     0.136 C 
BRANCH  27  28
HETATM   28  N   UNK     0       0.670  -8.335  18.194  0.00  0.00    -0.412 N 
BRANCH  28  29
HETATM   29  C   UNK     0       0.525  -7.864  16.734  0.00  0.00     0.112 C 
HETATM   30  C   UNK     0       1.625  -6.996  16.093  0.00  0.00     0.026 C 
ENDBRANCH  28  29
BRANCH  28  31
HETATM   31  C   UNK     0       1.786  -9.324  18.577  0.00  0.00     0.112 C 
HETATM   32  C   UNK     0       1.524 -10.403  19.646  0.00  0.00     0.026 C 
ENDBRANCH  28  31
ENDBRANCH  27  28
ENDBRANCH  26  27
ENDBRANCH  24  26
ENDBRANCH  21  24
ENDBRANCH  17  21
ENDBRANCH  12  13
ENDBRANCH   4  12
BRANCH   7  33
HETATM   33  O   UNK     0      -0.080 -14.116  25.921  0.00  0.00    -0.346 OA
HETATM   34  HO  UNK     0       0.021 -14.917  26.422  1.00  0.00     0.219 HD
ENDBRANCH   7  33
TORSDOF 11
ENDMDL
