MODEL 5
REMARK VINA RESULT:      -7.5      8.062     11.012
REMARK  11 active torsions:
REMARK  status: ('A' for Active; 'I' for Inactive)
REMARK    1  A    between atoms: O_2  and  C_21 
REMARK    2  A    between atoms: O_4  and  C_28 
REMARK    3  A    between atoms: N_6  and  C_13 
REMARK    4  A    between atoms: N_6  and  C_19 
REMARK    5  A    between atoms: N_6  and  C_20 
REMARK    6  A    between atoms: N_9  and  C_17 
REMARK    7  A    between atoms: N_9  and  C_21 
REMARK    8  A    between atoms: C_13  and  C_17 
REMARK    9  A    between atoms: C_14  and  C_21 
REMARK   10  A    between atoms: C_16  and  C_23 
REMARK   11  A    between atoms: C_22  and  C_23 
ROOT
HETATM    1  F   UNK     0      -0.256  -7.572  17.428  0.00  0.00    -0.215 F 
HETATM    2  N   UNK     0       1.335 -10.162  22.746  0.00  0.00    -0.340 N 
HETATM    3  HN  UNK     0       2.030 -10.851  23.035  1.00  0.00     0.168 HD
HETATM    4  C   UNK     0      -0.514  -8.511  22.807  0.00  0.00     0.007 A 
HETATM    5  C   UNK     0      -0.035  -8.626  21.357  0.00  0.00    -0.019 A 
HETATM    6  C   UNK     0       1.113  -9.652  21.320  0.00  0.00     0.019 A 
HETATM    7  C   UNK     0       0.331  -9.458  23.663  0.00  0.00     0.147 A 
HETATM    8  C   UNK     0      -0.491  -7.933  20.060  0.00  0.00     0.106 A 
HETATM    9  C   UNK     0       1.805  -9.984  19.984  0.00  0.00     0.064 A 
HETATM   10  C   UNK     0       0.200  -8.265  18.725  0.00  0.00     0.076 A 
HETATM   11  C   UNK     0       1.349  -9.291  18.688  0.00  0.00     0.072 A 
ENDROOT
BRANCH   4  12
HETATM   12  C   UNK     0      -1.647  -7.600  23.315  0.00  0.00     0.101 C 
BRANCH  12  13
HETATM   13  C   UNK     0      -1.504  -6.070  23.227  0.00  0.00     0.020 A 
HETATM   14  N   UNK     0      -0.900  -5.284  22.050  0.00  0.00    -0.362 N 
HETATM   15  C   UNK     0      -0.963  -3.784  22.397  0.00  0.00     0.020 A 
HETATM   16  HN  UNK     0      -0.525  -5.684  21.190  1.00  0.00     0.165 HD
HETATM   17  C   UNK     0      -1.605  -3.644  23.790  0.00  0.00     0.044 A 
HETATM   18  C   UNK     0      -0.469  -2.628  21.507  0.00  0.00     0.069 C 
HETATM   19  C   UNK     0      -1.939  -5.057  24.303  0.00  0.00    -0.023 A 
HETATM   20  C   UNK     0      -2.595  -5.397  25.654  0.00  0.00     0.051 C 
BRANCH  17  21
HETATM   21  C   UNK     0      -1.866  -2.324  24.537  0.00  0.00     0.148 C 
BRANCH  21  22
HETATM   22  O   UNK     0      -1.126  -2.024  25.854  0.00  0.00    -0.346 OA
HETATM   23  HO  UNK     0      -0.428  -2.599  26.147  1.00  0.00     0.219 HD
ENDBRANCH  21  22
BRANCH  21  24
HETATM   24  N   UNK     0      -2.869  -1.302  23.968  0.00  0.00    -0.369 N 
HETATM   25  HN  UNK     0      -3.870  -1.499  23.995  1.00  0.00     0.161 HD
BRANCH  24  26
HETATM   26  C   UNK     0      -2.360   0.017  23.357  0.00  0.00     0.141 C 
BRANCH  26  27
HETATM   27  C   UNK     0      -3.057   0.611  22.119  0.00  0.00     0.136 C 
BRANCH  27  28
HETATM   28  N   UNK     0      -4.118  -0.212  21.363  0.00  0.00    -0.412 N 
BRANCH  28  29
HETATM   29  C   UNK     0      -5.616   0.049  21.610  0.00  0.00     0.112 C 
HETATM   30  C   UNK     0      -6.302  -0.531  22.861  0.00  0.00     0.026 C 
ENDBRANCH  28  29
BRANCH  28  31
HETATM   31  C   UNK     0      -3.680  -1.295  20.360  0.00  0.00     0.112 C 
HETATM   32  C   UNK     0      -2.671  -0.951  19.248  0.00  0.00     0.026 C 
ENDBRANCH  28  31
ENDBRANCH  27  28
ENDBRANCH  26  27
ENDBRANCH  24  26
ENDBRANCH  21  24
ENDBRANCH  17  21
ENDBRANCH  12  13
ENDBRANCH   4  12
BRANCH   7  33
HETATM   33  O   UNK     0       0.195  -9.666  25.183  0.00  0.00    -0.346 OA
HETATM   34  HO  UNK     0       0.590 -10.367  25.688  1.00  0.00     0.219 HD
ENDBRANCH   7  33
TORSDOF 11
ENDMDL
