MODEL 2
REMARK VINA RESULT:      -8.5      5.322     12.532
REMARK  11 active torsions:
REMARK  status: ('A' for Active; 'I' for Inactive)
REMARK    1  A    between atoms: O_2  and  C_21 
REMARK    2  A    between atoms: O_4  and  C_28 
REMARK    3  A    between atoms: N_6  and  C_13 
REMARK    4  A    between atoms: N_6  and  C_19 
REMARK    5  A    between atoms: N_6  and  C_20 
REMARK    6  A    between atoms: N_9  and  C_17 
REMARK    7  A    between atoms: N_9  and  C_21 
REMARK    8  A    between atoms: C_13  and  C_17 
REMARK    9  A    between atoms: C_14  and  C_21 
REMARK   10  A    between atoms: C_16  and  C_23 
REMARK   11  A    between atoms: C_22  and  C_23 
ROOT
HETATM    1  F   UNK     0      -1.145  -0.795   5.916  0.00  0.00    -0.215 F 
HETATM    2  N   UNK     0       3.013   3.664   6.509  0.00  0.00    -0.340 N 
HETATM    3  HN  UNK     0       2.975   4.671   6.668  1.00  0.00     0.168 HD
HETATM    4  C   UNK     0       3.870   1.370   6.127  0.00  0.00     0.007 A 
HETATM    5  C   UNK     0       2.342   1.300   6.156  0.00  0.00    -0.019 A 
HETATM    6  C   UNK     0       1.809   2.726   6.393  0.00  0.00     0.019 A 
HETATM    7  C   UNK     0       4.285   2.827   6.346  0.00  0.00     0.147 A 
HETATM    8  C   UNK     0       1.357   0.127   5.997  0.00  0.00     0.106 A 
HETATM    9  C   UNK     0       0.291   2.977   6.471  0.00  0.00     0.064 A 
HETATM   10  C   UNK     0      -0.160   0.379   6.075  0.00  0.00     0.076 A 
HETATM   11  C   UNK     0      -0.693   1.804   6.312  0.00  0.00     0.072 A 
ENDROOT
BRANCH   4  12
HETATM   12  C   UNK     0       4.826   0.180   5.916  0.00  0.00     0.101 C 
BRANCH  12  13
HETATM   13  C   UNK     0       5.294  -0.655   7.123  0.00  0.00     0.020 A 
HETATM   14  N   UNK     0       6.588  -0.438   7.927  0.00  0.00    -0.362 N 
HETATM   15  C   UNK     0       6.642  -1.503   9.038  0.00  0.00     0.020 A 
HETATM   16  HN  UNK     0       7.286   0.285   7.755  1.00  0.00     0.165 HD
HETATM   17  C   UNK     0       5.381  -2.380   8.920  0.00  0.00     0.044 A 
HETATM   18  C   UNK     0       7.761  -1.664  10.084  0.00  0.00     0.069 C 
HETATM   19  C   UNK     0       4.548  -1.855   7.736  0.00  0.00    -0.023 A 
HETATM   20  C   UNK     0       3.204  -2.430   7.250  0.00  0.00     0.051 C 
BRANCH  17  21
HETATM   21  C   UNK     0       5.018  -3.570   9.825  0.00  0.00     0.148 C 
BRANCH  21  22
HETATM   22  O   UNK     0       6.123  -4.513  10.339  0.00  0.00    -0.346 OA
HETATM   23  HO  UNK     0       6.493  -4.383  11.205  1.00  0.00     0.219 HD
ENDBRANCH  21  22
BRANCH  21  24
HETATM   24  N   UNK     0       3.550  -3.819  10.218  0.00  0.00    -0.369 N 
HETATM   25  HN  UNK     0       2.849  -3.096  10.057  1.00  0.00     0.161 HD
BRANCH  24  26
HETATM   26  C   UNK     0       3.141  -5.161  10.854  0.00  0.00     0.141 C 
BRANCH  26  27
HETATM   27  C   UNK     0       3.059  -5.293  12.386  0.00  0.00     0.136 C 
BRANCH  27  28
HETATM   28  N   UNK     0       2.244  -6.437  13.018  0.00  0.00    -0.412 N 
BRANCH  28  29
HETATM   29  C   UNK     0       1.092  -7.089  12.230  0.00  0.00     0.112 C 
HETATM   30  C   UNK     0      -0.044  -7.809  12.981  0.00  0.00     0.026 C 
ENDBRANCH  28  29
BRANCH  28  31
HETATM   31  C   UNK     0       2.581  -6.929  14.438  0.00  0.00     0.112 C 
HETATM   32  C   UNK     0       1.893  -6.287  15.658  0.00  0.00     0.026 C 
ENDBRANCH  28  31
ENDBRANCH  27  28
ENDBRANCH  26  27
ENDBRANCH  24  26
ENDBRANCH  21  24
ENDBRANCH  17  21
ENDBRANCH  12  13
ENDBRANCH   4  12
BRANCH   7  33
HETATM   33  O   UNK     0       5.729   3.359   6.392  0.00  0.00    -0.346 OA
HETATM   34  HO  UNK     0       6.041   4.083   6.923  1.00  0.00     0.219 HD
ENDBRANCH   7  33
TORSDOF 11
ENDMDL
