MODEL 14
REMARK VINA RESULT:      -6.5      9.192     13.049
REMARK  11 active torsions:
REMARK  status: ('A' for Active; 'I' for Inactive)
REMARK    1  A    between atoms: O_2  and  C_21 
REMARK    2  A    between atoms: O_4  and  C_28 
REMARK    3  A    between atoms: N_6  and  C_13 
REMARK    4  A    between atoms: N_6  and  C_19 
REMARK    5  A    between atoms: N_6  and  C_20 
REMARK    6  A    between atoms: N_9  and  C_17 
REMARK    7  A    between atoms: N_9  and  C_21 
REMARK    8  A    between atoms: C_13  and  C_17 
REMARK    9  A    between atoms: C_14  and  C_21 
REMARK   10  A    between atoms: C_16  and  C_23 
REMARK   11  A    between atoms: C_22  and  C_23 
ROOT
HETATM    1  F   UNK     0       0.266  -0.869  21.977  0.00  0.00    -0.215 F 
HETATM    2  N   UNK     0      -5.483  -1.123  19.880  0.00  0.00    -0.340 N 
HETATM    3  HN  UNK     0      -5.921  -1.052  18.961  1.00  0.00     0.168 HD
HETATM    4  C   UNK     0      -5.165  -1.388  22.324  0.00  0.00     0.007 A 
HETATM    5  C   UNK     0      -3.785  -1.191  21.690  0.00  0.00    -0.019 A 
HETATM    6  C   UNK     0      -3.983  -1.026  20.171  0.00  0.00     0.019 A 
HETATM    7  C   UNK     0      -6.212  -1.346  21.208  0.00  0.00     0.147 A 
HETATM    8  C   UNK     0      -2.369  -1.138  22.291  0.00  0.00     0.106 A 
HETATM    9  C   UNK     0      -2.765  -0.810  19.255  0.00  0.00     0.064 A 
HETATM   10  C   UNK     0      -1.151  -0.922  21.375  0.00  0.00     0.076 A 
HETATM   11  C   UNK     0      -1.349  -0.758  19.857  0.00  0.00     0.072 A 
ENDROOT
BRANCH   4  12
HETATM   12  C   UNK     0      -5.450  -1.592  23.824  0.00  0.00     0.101 C 
BRANCH  12  13
HETATM   13  C   UNK     0      -4.854  -2.805  24.562  0.00  0.00     0.020 A 
HETATM   14  N   UNK     0      -3.718  -2.764  25.600  0.00  0.00    -0.362 N 
HETATM   15  C   UNK     0      -3.452  -4.206  26.071  0.00  0.00     0.020 A 
HETATM   16  HN  UNK     0      -3.227  -1.929  25.920  1.00  0.00     0.165 HD
HETATM   17  C   UNK     0      -4.424  -5.138  25.325  0.00  0.00     0.044 A 
HETATM   18  C   UNK     0      -2.399  -4.640  27.108  0.00  0.00     0.069 C 
HETATM   19  C   UNK     0      -5.290  -4.272  24.392  0.00  0.00    -0.023 A 
HETATM   20  C   UNK     0      -6.399  -4.783  23.453  0.00  0.00     0.051 C 
BRANCH  17  21
HETATM   21  C   UNK     0      -4.514  -6.667  25.483  0.00  0.00     0.148 C 
BRANCH  21  22
HETATM   22  O   UNK     0      -5.145  -7.274  26.750  0.00  0.00    -0.346 OA
HETATM   23  HO  UNK     0      -5.943  -6.903  27.108  1.00  0.00     0.219 HD
ENDBRANCH  21  22
BRANCH  21  24
HETATM   24  N   UNK     0      -3.972  -7.589  24.374  0.00  0.00    -0.369 N 
HETATM   25  HN  UNK     0      -4.547  -7.797  23.557  1.00  0.00     0.161 HD
BRANCH  24  26
HETATM   26  C   UNK     0      -2.563  -8.196  24.499  0.00  0.00     0.141 C 
BRANCH  26  27
HETATM   27  C   UNK     0      -1.324  -7.281  24.459  0.00  0.00     0.136 C 
BRANCH  27  28
HETATM   28  N   UNK     0      -0.661  -6.941  23.111  0.00  0.00    -0.412 N 
BRANCH  28  29
HETATM   29  C   UNK     0       0.011  -5.570  22.907  0.00  0.00     0.112 C 
HETATM   30  C   UNK     0      -0.755  -4.436  22.200  0.00  0.00     0.026 C 
ENDBRANCH  28  29
BRANCH  28  31
HETATM   31  C   UNK     0      -0.669  -7.973  21.968  0.00  0.00     0.112 C 
HETATM   32  C   UNK     0       0.131  -7.700  20.680  0.00  0.00     0.026 C 
ENDBRANCH  28  31
ENDBRANCH  27  28
ENDBRANCH  26  27
ENDBRANCH  24  26
ENDBRANCH  21  24
ENDBRANCH  17  21
ENDBRANCH  12  13
ENDBRANCH   4  12
BRANCH   7  33
HETATM   33  O   UNK     0      -7.733  -1.501  21.390  0.00  0.00    -0.346 OA
HETATM   34  HO  UNK     0      -8.359  -1.709  20.705  1.00  0.00     0.219 HD
ENDBRANCH   7  33
TORSDOF 11
ENDMDL
