MODEL 8
REMARK VINA RESULT:      -6.7      8.274     11.570
REMARK  11 active torsions:
REMARK  status: ('A' for Active; 'I' for Inactive)
REMARK    1  A    between atoms: O_2  and  C_21 
REMARK    2  A    between atoms: O_4  and  C_28 
REMARK    3  A    between atoms: N_6  and  C_13 
REMARK    4  A    between atoms: N_6  and  C_19 
REMARK    5  A    between atoms: N_6  and  C_20 
REMARK    6  A    between atoms: N_9  and  C_17 
REMARK    7  A    between atoms: N_9  and  C_21 
REMARK    8  A    between atoms: C_13  and  C_17 
REMARK    9  A    between atoms: C_14  and  C_21 
REMARK   10  A    between atoms: C_16  and  C_23 
REMARK   11  A    between atoms: C_22  and  C_23 
ROOT
HETATM    1  F   UNK     0      -0.428  -7.529  17.731  0.00  0.00    -0.215 F 
HETATM    2  N   UNK     0       1.188 -10.033  23.083  0.00  0.00    -0.340 N 
HETATM    3  HN  UNK     0       1.878 -10.724  23.378  1.00  0.00     0.168 HD
HETATM    4  C   UNK     0      -0.639  -8.358  23.130  0.00  0.00     0.007 A 
HETATM    5  C   UNK     0      -0.178  -8.508  21.678  0.00  0.00    -0.019 A 
HETATM    6  C   UNK     0       0.957  -9.548  21.649  0.00  0.00     0.019 A 
HETATM    7  C   UNK     0       0.203  -9.298  23.997  0.00  0.00     0.147 A 
HETATM    8  C   UNK     0      -0.639  -7.835  20.372  0.00  0.00     0.106 A 
HETATM    9  C   UNK     0       1.631  -9.916  20.313  0.00  0.00     0.064 A 
HETATM   10  C   UNK     0       0.034  -8.202  19.037  0.00  0.00     0.076 A 
HETATM   11  C   UNK     0       1.169  -9.243  19.008  0.00  0.00     0.072 A 
ENDROOT
BRANCH   4  12
HETATM   12  C   UNK     0      -1.756  -7.424  23.632  0.00  0.00     0.101 C 
BRANCH  12  13
HETATM   13  C   UNK     0      -1.654  -5.905  23.395  0.00  0.00     0.020 A 
HETATM   14  N   UNK     0      -0.912  -5.218  22.235  0.00  0.00    -0.362 N 
HETATM   15  C   UNK     0      -1.077  -3.696  22.400  0.00  0.00     0.020 A 
HETATM   16  HN  UNK     0      -0.401  -5.688  21.488  1.00  0.00     0.165 HD
HETATM   17  C   UNK     0      -1.922  -3.442  23.663  0.00  0.00     0.044 A 
HETATM   18  C   UNK     0      -0.499  -2.616  21.466  0.00  0.00     0.069 C 
HETATM   19  C   UNK     0      -2.279  -4.808  24.277  0.00  0.00    -0.023 A 
HETATM   20  C   UNK     0      -3.113  -5.037  25.551  0.00  0.00     0.051 C 
BRANCH  17  21
HETATM   21  C   UNK     0      -2.336  -2.066  24.213  0.00  0.00     0.148 C 
BRANCH  21  22
HETATM   22  O   UNK     0      -3.674  -1.434  23.781  0.00  0.00    -0.346 OA
HETATM   23  HO  UNK     0      -4.375  -1.329  24.414  1.00  0.00     0.219 HD
ENDBRANCH  21  22
BRANCH  21  24
HETATM   24  N   UNK     0      -1.414  -1.319  25.195  0.00  0.00    -0.369 N 
HETATM   25  HN  UNK     0      -0.539  -1.747  25.498  1.00  0.00     0.161 HD
BRANCH  24  26
HETATM   26  C   UNK     0      -1.813   0.073  25.718  0.00  0.00     0.141 C 
BRANCH  26  27
HETATM   27  C   UNK     0      -0.943   1.299  25.385  0.00  0.00     0.136 C 
BRANCH  27  28
HETATM   28  N   UNK     0      -1.322   2.216  24.207  0.00  0.00    -0.412 N 
BRANCH  28  29
HETATM   29  C   UNK     0      -0.694   3.617  24.088  0.00  0.00     0.112 C 
HETATM   30  C   UNK     0       0.473   4.018  25.009  0.00  0.00     0.026 C 
ENDBRANCH  28  29
BRANCH  28  31
HETATM   31  C   UNK     0      -2.330   1.731  23.148  0.00  0.00     0.112 C 
HETATM   32  C   UNK     0      -1.835   0.953  21.914  0.00  0.00     0.026 C 
ENDBRANCH  28  31
ENDBRANCH  27  28
ENDBRANCH  26  27
ENDBRANCH  24  26
ENDBRANCH  21  24
ENDBRANCH  17  21
ENDBRANCH  12  13
ENDBRANCH   4  12
BRANCH   7  33
HETATM   33  O   UNK     0       0.081  -9.474  25.522  0.00  0.00    -0.346 OA
HETATM   34  HO  UNK     0      -0.704  -9.334  26.038  1.00  0.00     0.219 HD
ENDBRANCH   7  33
TORSDOF 11
ENDMDL
