MODEL 9
REMARK VINA RESULT:      -6.7     10.697     14.773
REMARK  11 active torsions:
REMARK  status: ('A' for Active; 'I' for Inactive)
REMARK    1  A    between atoms: O_2  and  C_21 
REMARK    2  A    between atoms: O_4  and  C_28 
REMARK    3  A    between atoms: N_6  and  C_13 
REMARK    4  A    between atoms: N_6  and  C_19 
REMARK    5  A    between atoms: N_6  and  C_20 
REMARK    6  A    between atoms: N_9  and  C_17 
REMARK    7  A    between atoms: N_9  and  C_21 
REMARK    8  A    between atoms: C_13  and  C_17 
REMARK    9  A    between atoms: C_14  and  C_21 
REMARK   10  A    between atoms: C_16  and  C_23 
REMARK   11  A    between atoms: C_22  and  C_23 
ROOT
HETATM    1  F   UNK     0       0.561   2.160  23.442  0.00  0.00    -0.215 F 
HETATM    2  N   UNK     0      -2.896  -1.477  19.929  0.00  0.00    -0.340 N 
HETATM    3  HN  UNK     0      -2.719  -2.288  19.335  1.00  0.00     0.168 HD
HETATM    4  C   UNK     0      -4.052   0.360  21.126  0.00  0.00     0.007 A 
HETATM    5  C   UNK     0      -2.564   0.434  21.479  0.00  0.00    -0.019 A 
HETATM    6  C   UNK     0      -1.846  -0.708  20.735  0.00  0.00     0.019 A 
HETATM    7  C   UNK     0      -4.257  -0.818  20.171  0.00  0.00     0.147 A 
HETATM    8  C   UNK     0      -1.761   1.390  22.381  0.00  0.00     0.106 A 
HETATM    9  C   UNK     0      -0.325  -0.893  20.894  0.00  0.00     0.064 A 
HETATM   10  C   UNK     0      -0.241   1.204  22.540  0.00  0.00     0.076 A 
HETATM   11  C   UNK     0       0.477   0.063  21.796  0.00  0.00     0.072 A 
ENDROOT
BRANCH   4  12
HETATM   12  C   UNK     0      -5.151   1.307  21.643  0.00  0.00     0.101 C 
BRANCH  12  13
HETATM   13  C   UNK     0      -6.472   0.730  22.185  0.00  0.00     0.020 A 
HETATM   14  N   UNK     0      -7.633   0.177  21.338  0.00  0.00    -0.362 N 
HETATM   15  C   UNK     0      -8.742  -0.290  22.299  0.00  0.00     0.020 A 
HETATM   16  HN  UNK     0      -7.663   0.129  20.320  1.00  0.00     0.165 HD
HETATM   17  C   UNK     0      -8.266  -0.027  23.740  0.00  0.00     0.044 A 
HETATM   18  C   UNK     0     -10.091  -0.912  21.891  0.00  0.00     0.069 C 
HETATM   19  C   UNK     0      -6.863   0.604  23.669  0.00  0.00    -0.023 A 
HETATM   20  C   UNK     0      -6.002   1.033  24.871  0.00  0.00     0.051 C 
BRANCH  17  21
HETATM   21  C   UNK     0      -9.055  -0.339  25.025  0.00  0.00     0.148 C 
BRANCH  21  22
HETATM   22  O   UNK     0     -10.321   0.469  25.367  0.00  0.00    -0.346 OA
HETATM   23  HO  UNK     0     -10.244   1.366  25.673  1.00  0.00     0.219 HD
ENDBRANCH  21  22
BRANCH  21  24
HETATM   24  N   UNK     0      -8.577  -1.459  25.968  0.00  0.00    -0.369 N 
HETATM   25  HN  UNK     0      -8.411  -1.259  26.955  1.00  0.00     0.161 HD
BRANCH  24  26
HETATM   26  C   UNK     0      -8.351  -2.881  25.422  0.00  0.00     0.141 C 
BRANCH  26  27
HETATM   27  C   UNK     0      -6.926  -3.361  25.092  0.00  0.00     0.136 C 
BRANCH  27  28
HETATM   28  N   UNK     0      -6.547  -3.710  23.640  0.00  0.00    -0.412 N 
BRANCH  28  29
HETATM   29  C   UNK     0      -7.340  -4.785  22.875  0.00  0.00     0.112 C 
HETATM   30  C   UNK     0      -8.636  -4.405  22.135  0.00  0.00     0.026 C 
ENDBRANCH  28  29
BRANCH  28  31
HETATM   31  C   UNK     0      -5.375  -2.983  22.955  0.00  0.00     0.112 C 
HETATM   32  C   UNK     0      -4.398  -2.138  23.794  0.00  0.00     0.026 C 
ENDBRANCH  28  31
ENDBRANCH  27  28
ENDBRANCH  26  27
ENDBRANCH  24  26
ENDBRANCH  21  24
ENDBRANCH  17  21
ENDBRANCH  12  13
ENDBRANCH   4  12
BRANCH   7  33
HETATM   33  O   UNK     0      -5.598  -1.263  19.558  0.00  0.00    -0.346 OA
HETATM   34  HO  UNK     0      -5.709  -1.896  18.859  1.00  0.00     0.219 HD
ENDBRANCH   7  33
TORSDOF 11
ENDMDL
