MODEL 10
REMARK VINA RESULT:      -6.6      9.077     11.375
REMARK  11 active torsions:
REMARK  status: ('A' for Active; 'I' for Inactive)
REMARK    1  A    between atoms: O_2  and  C_21 
REMARK    2  A    between atoms: O_4  and  C_28 
REMARK    3  A    between atoms: N_6  and  C_13 
REMARK    4  A    between atoms: N_6  and  C_19 
REMARK    5  A    between atoms: N_6  and  C_20 
REMARK    6  A    between atoms: N_9  and  C_17 
REMARK    7  A    between atoms: N_9  and  C_21 
REMARK    8  A    between atoms: C_13  and  C_17 
REMARK    9  A    between atoms: C_14  and  C_21 
REMARK   10  A    between atoms: C_16  and  C_23 
REMARK   11  A    between atoms: C_22  and  C_23 
ROOT
HETATM    1  F   UNK     0      -1.391  -6.741  19.777  0.00  0.00    -0.215 F 
HETATM    2  N   UNK     0       1.267 -10.468  23.847  0.00  0.00    -0.340 N 
HETATM    3  HN  UNK     0       1.983 -11.194  23.802  1.00  0.00     0.168 HD
HETATM    4  C   UNK     0      -0.454  -8.905  24.708  0.00  0.00     0.007 A 
HETATM    5  C   UNK     0      -0.323  -8.674  23.201  0.00  0.00    -0.019 A 
HETATM    6  C   UNK     0       0.747  -9.644  22.666  0.00  0.00     0.019 A 
HETATM    7  C   UNK     0       0.526 -10.011  25.107  0.00  0.00     0.147 A 
HETATM    8  C   UNK     0      -1.035  -7.706  22.238  0.00  0.00     0.106 A 
HETATM    9  C   UNK     0       1.103  -9.647  21.167  0.00  0.00     0.064 A 
HETATM   10  C   UNK     0      -0.679  -7.709  20.740  0.00  0.00     0.076 A 
HETATM   11  C   UNK     0       0.391  -8.680  20.205  0.00  0.00     0.072 A 
ENDROOT
BRANCH   4  12
HETATM   12  C   UNK     0      -1.406  -8.156  25.659  0.00  0.00     0.101 C 
BRANCH  12  13
HETATM   13  C   UNK     0      -1.987  -6.790  25.248  0.00  0.00     0.020 A 
HETATM   14  N   UNK     0      -3.473  -6.476  25.000  0.00  0.00    -0.362 N 
HETATM   15  C   UNK     0      -3.586  -4.989  24.612  0.00  0.00     0.020 A 
HETATM   16  HN  UNK     0      -4.247  -7.135  25.078  1.00  0.00     0.165 HD
HETATM   17  C   UNK     0      -2.170  -4.385  24.620  0.00  0.00     0.044 A 
HETATM   18  C   UNK     0      -4.888  -4.239  24.274  0.00  0.00     0.069 C 
HETATM   19  C   UNK     0      -1.181  -5.498  25.014  0.00  0.00    -0.023 A 
HETATM   20  C   UNK     0       0.345  -5.346  25.149  0.00  0.00     0.051 C 
BRANCH  17  21
HETATM   21  C   UNK     0      -1.806  -2.926  24.294  0.00  0.00     0.148 C 
BRANCH  21  22
HETATM   22  O   UNK     0      -1.081  -2.059  25.340  0.00  0.00    -0.346 OA
HETATM   23  HO  UNK     0      -0.146  -1.906  25.264  1.00  0.00     0.219 HD
ENDBRANCH  21  22
BRANCH  21  24
HETATM   24  N   UNK     0      -2.168  -2.331  22.919  0.00  0.00    -0.369 N 
HETATM   25  HN  UNK     0      -3.146  -2.183  22.669  1.00  0.00     0.161 HD
BRANCH  24  26
HETATM   26  C   UNK     0      -1.054  -1.960  21.924  0.00  0.00     0.141 C 
BRANCH  26  27
HETATM   27  C   UNK     0      -0.479  -0.531  21.909  0.00  0.00     0.136 C 
BRANCH  27  28
HETATM   28  N   UNK     0      -1.316   0.641  22.458  0.00  0.00    -0.412 N 
BRANCH  28  29
HETATM   29  C   UNK     0      -0.942   1.290  23.803  0.00  0.00     0.112 C 
HETATM   30  C   UNK     0       0.538   1.428  24.206  0.00  0.00     0.026 C 
ENDBRANCH  28  29
BRANCH  28  31
HETATM   31  C   UNK     0      -2.525   1.162  21.660  0.00  0.00     0.112 C 
HETATM   32  C   UNK     0      -3.824   1.546  22.394  0.00  0.00     0.026 C 
ENDBRANCH  28  31
ENDBRANCH  27  28
ENDBRANCH  26  27
ENDBRANCH  24  26
ENDBRANCH  21  24
ENDBRANCH  17  21
ENDBRANCH  12  13
ENDBRANCH   4  12
BRANCH   7  33
HETATM   33  O   UNK     0       0.732 -10.568  26.528  0.00  0.00    -0.346 OA
HETATM   34  HO  UNK     0       1.462 -10.373  27.104  1.00  0.00     0.219 HD
ENDBRANCH   7  33
TORSDOF 11
ENDMDL
