MODEL 17
REMARK VINA RESULT:      -6.3      9.035     12.774
REMARK  11 active torsions:
REMARK  status: ('A' for Active; 'I' for Inactive)
REMARK    1  A    between atoms: O_2  and  C_21 
REMARK    2  A    between atoms: O_4  and  C_28 
REMARK    3  A    between atoms: N_6  and  C_13 
REMARK    4  A    between atoms: N_6  and  C_19 
REMARK    5  A    between atoms: N_6  and  C_20 
REMARK    6  A    between atoms: N_9  and  C_17 
REMARK    7  A    between atoms: N_9  and  C_21 
REMARK    8  A    between atoms: C_13  and  C_17 
REMARK    9  A    between atoms: C_14  and  C_21 
REMARK   10  A    between atoms: C_16  and  C_23 
REMARK   11  A    between atoms: C_22  and  C_23 
ROOT
HETATM    1  F   UNK     0       0.260  -1.900  21.813  0.00  0.00    -0.215 F 
HETATM    2  N   UNK     0      -5.491  -0.941  19.935  0.00  0.00    -0.340 N 
HETATM    3  HN  UNK     0      -5.925  -0.640  19.062  1.00  0.00     0.168 HD
HETATM    4  C   UNK     0      -5.183  -1.691  22.277  0.00  0.00     0.007 A 
HETATM    5  C   UNK     0      -3.798  -1.581  21.634  0.00  0.00    -0.019 A 
HETATM    6  C   UNK     0      -3.990  -1.114  20.179  0.00  0.00     0.019 A 
HETATM    7  C   UNK     0      -6.227  -1.297  21.230  0.00  0.00     0.147 A 
HETATM    8  C   UNK     0      -2.381  -1.842  22.179  0.00  0.00     0.106 A 
HETATM    9  C   UNK     0      -2.764  -0.910  19.269  0.00  0.00     0.064 A 
HETATM   10  C   UNK     0      -1.157  -1.638  21.269  0.00  0.00     0.076 A 
HETATM   11  C   UNK     0      -1.348  -1.172  19.814  0.00  0.00     0.072 A 
ENDROOT
BRANCH   4  12
HETATM   12  C   UNK     0      -5.475  -2.124  23.726  0.00  0.00     0.101 C 
BRANCH  12  13
HETATM   13  C   UNK     0      -5.733  -3.608  24.050  0.00  0.00     0.020 A 
HETATM   14  N   UNK     0      -7.039  -4.379  23.782  0.00  0.00    -0.362 N 
HETATM   15  C   UNK     0      -6.842  -5.828  24.264  0.00  0.00     0.020 A 
HETATM   16  HN  UNK     0      -7.885  -3.997  23.360  1.00  0.00     0.165 HD
HETATM   17  C   UNK     0      -5.416  -5.953  24.830  0.00  0.00     0.044 A 
HETATM   18  C   UNK     0      -7.890  -6.955  24.193  0.00  0.00     0.069 C 
HETATM   19  C   UNK     0      -4.730  -4.581  24.697  0.00  0.00    -0.023 A 
HETATM   20  C   UNK     0      -3.294  -4.240  25.136  0.00  0.00     0.051 C 
BRANCH  17  21
HETATM   21  C   UNK     0      -4.786  -7.226  25.424  0.00  0.00     0.148 C 
BRANCH  21  22
HETATM   22  O   UNK     0      -5.678  -8.282  26.103  0.00  0.00    -0.346 OA
HETATM   23  HO  UNK     0      -5.358  -9.169  26.220  1.00  0.00     0.219 HD
ENDBRANCH  21  22
BRANCH  21  24
HETATM   24  N   UNK     0      -3.263  -7.443  25.339  0.00  0.00    -0.369 N 
HETATM   25  HN  UNK     0      -2.675  -7.259  26.153  1.00  0.00     0.161 HD
BRANCH  24  26
HETATM   26  C   UNK     0      -2.628  -7.937  24.026  0.00  0.00     0.141 C 
BRANCH  26  27
HETATM   27  C   UNK     0      -1.102  -7.862  23.833  0.00  0.00     0.136 C 
BRANCH  27  28
HETATM   28  N   UNK     0      -0.509  -7.763  22.415  0.00  0.00    -0.412 N 
BRANCH  28  29
HETATM   29  C   UNK     0       0.067  -9.018  21.732  0.00  0.00     0.112 C 
HETATM   30  C   UNK     0       1.001  -8.871  20.516  0.00  0.00     0.026 C 
ENDBRANCH  28  29
BRANCH  28  31
HETATM   31  C   UNK     0      -0.493  -6.410  21.681  0.00  0.00     0.112 C 
HETATM   32  C   UNK     0       0.111  -5.169  22.367  0.00  0.00     0.026 C 
ENDBRANCH  28  31
ENDBRANCH  27  28
ENDBRANCH  26  27
ENDBRANCH  24  26
ENDBRANCH  21  24
ENDBRANCH  17  21
ENDBRANCH  12  13
ENDBRANCH   4  12
BRANCH   7  33
HETATM   33  O   UNK     0      -7.752  -1.264  21.441  0.00  0.00    -0.346 OA
HETATM   34  HO  UNK     0      -8.367  -1.938  21.177  1.00  0.00     0.219 HD
ENDBRANCH   7  33
TORSDOF 11
ENDMDL
