MODEL 7
REMARK VINA RESULT:      -6.8      8.896     12.384
REMARK  11 active torsions:
REMARK  status: ('A' for Active; 'I' for Inactive)
REMARK    1  A    between atoms: O_2  and  C_21 
REMARK    2  A    between atoms: O_4  and  C_28 
REMARK    3  A    between atoms: N_6  and  C_13 
REMARK    4  A    between atoms: N_6  and  C_19 
REMARK    5  A    between atoms: N_6  and  C_20 
REMARK    6  A    between atoms: N_9  and  C_17 
REMARK    7  A    between atoms: N_9  and  C_21 
REMARK    8  A    between atoms: C_13  and  C_17 
REMARK    9  A    between atoms: C_14  and  C_21 
REMARK   10  A    between atoms: C_16  and  C_23 
REMARK   11  A    between atoms: C_22  and  C_23 
ROOT
HETATM    1  F   UNK     0       0.512  -1.534  21.214  0.00  0.00    -0.215 F 
HETATM    2  N   UNK     0      -5.606  -1.436  20.939  0.00  0.00    -0.340 N 
HETATM    3  HN  UNK     0      -6.294  -1.176  20.231  1.00  0.00     0.168 HD
HETATM    4  C   UNK     0      -4.587  -2.213  23.061  0.00  0.00     0.007 A 
HETATM    5  C   UNK     0      -3.452  -1.860  22.098  0.00  0.00    -0.019 A 
HETATM    6  C   UNK     0      -4.085  -1.377  20.780  0.00  0.00     0.019 A 
HETATM    7  C   UNK     0      -5.916  -1.952  22.347  0.00  0.00     0.147 A 
HETATM    8  C   UNK     0      -1.919  -1.912  22.243  0.00  0.00     0.106 A 
HETATM    9  C   UNK     0      -3.185  -0.946  19.606  0.00  0.00     0.064 A 
HETATM   10  C   UNK     0      -1.020  -1.482  21.069  0.00  0.00     0.076 A 
HETATM   11  C   UNK     0      -1.653  -0.999  19.751  0.00  0.00     0.072 A 
ENDROOT
BRANCH   4  12
HETATM   12  C   UNK     0      -4.423  -2.740  24.499  0.00  0.00     0.101 C 
BRANCH  12  13
HETATM   13  C   UNK     0      -3.901  -4.169  24.741  0.00  0.00     0.020 A 
HETATM   14  N   UNK     0      -4.624  -5.473  24.357  0.00  0.00    -0.362 N 
HETATM   15  C   UNK     0      -3.734  -6.654  24.788  0.00  0.00     0.020 A 
HETATM   16  HN  UNK     0      -5.531  -5.543  23.898  1.00  0.00     0.165 HD
HETATM   17  C   UNK     0      -2.462  -6.080  25.438  0.00  0.00     0.044 A 
HETATM   18  C   UNK     0      -4.060  -8.148  24.601  0.00  0.00     0.069 C 
HETATM   19  C   UNK     0      -2.565  -4.544  25.409  0.00  0.00    -0.023 A 
HETATM   20  C   UNK     0      -1.516  -3.555  25.953  0.00  0.00     0.051 C 
BRANCH  17  21
HETATM   21  C   UNK     0      -1.292  -6.897  26.015  0.00  0.00     0.148 C 
BRANCH  21  22
HETATM   22  O   UNK     0      -1.323  -7.353  27.487  0.00  0.00    -0.346 OA
HETATM   23  HO  UNK     0      -1.660  -8.212  27.711  1.00  0.00     0.219 HD
ENDBRANCH  21  22
BRANCH  21  24
HETATM   24  N   UNK     0      -0.091  -7.260  25.122  0.00  0.00    -0.369 N 
HETATM   25  HN  UNK     0       0.753  -6.688  25.145  1.00  0.00     0.161 HD
BRANCH  24  26
HETATM   26  C   UNK     0      -0.165  -8.487  24.194  0.00  0.00     0.141 C 
BRANCH  26  27
HETATM   27  C   UNK     0      -0.807  -8.360  22.800  0.00  0.00     0.136 C 
BRANCH  27  28
HETATM   28  N   UNK     0      -0.030  -7.685  21.654  0.00  0.00    -0.412 N 
BRANCH  28  29
HETATM   29  C   UNK     0       0.421  -6.218  21.788  0.00  0.00     0.112 C 
HETATM   30  C   UNK     0      -0.590  -5.139  22.216  0.00  0.00     0.026 C 
ENDBRANCH  28  29
BRANCH  28  31
HETATM   31  C   UNK     0       0.296  -8.477  20.374  0.00  0.00     0.112 C 
HETATM   32  C   UNK     0       0.935  -9.875  20.476  0.00  0.00     0.026 C 
ENDBRANCH  28  31
ENDBRANCH  27  28
ENDBRANCH  26  27
ENDBRANCH  24  26
ENDBRANCH  21  24
ENDBRANCH  17  21
ENDBRANCH  12  13
ENDBRANCH   4  12
BRANCH   7  33
HETATM   33  O   UNK     0      -7.320  -2.170  22.941  0.00  0.00    -0.346 OA
HETATM   34  HO  UNK     0      -8.144  -2.063  22.480  1.00  0.00     0.219 HD
ENDBRANCH   7  33
TORSDOF 11
ENDMDL
