MODEL 3
REMARK VINA RESULT:      -8.2      6.495     10.866
REMARK  11 active torsions:
REMARK  status: ('A' for Active; 'I' for Inactive)
REMARK    1  A    between atoms: O_2  and  C_21 
REMARK    2  A    between atoms: O_4  and  C_28 
REMARK    3  A    between atoms: N_6  and  C_13 
REMARK    4  A    between atoms: N_6  and  C_19 
REMARK    5  A    between atoms: N_6  and  C_20 
REMARK    6  A    between atoms: N_9  and  C_17 
REMARK    7  A    between atoms: N_9  and  C_21 
REMARK    8  A    between atoms: C_13  and  C_17 
REMARK    9  A    between atoms: C_14  and  C_21 
REMARK   10  A    between atoms: C_16  and  C_23 
REMARK   11  A    between atoms: C_22  and  C_23 
ROOT
HETATM    1  F   UNK     0       0.247  -6.823  15.223  0.00  0.00    -0.215 F 
HETATM    2  N   UNK     0       2.227 -10.122  19.989  0.00  0.00    -0.340 N 
HETATM    3  HN  UNK     0       2.963 -10.813  20.133  1.00  0.00     0.168 HD
HETATM    4  C   UNK     0       0.322  -8.589  20.395  0.00  0.00     0.007 A 
HETATM    5  C   UNK     0       0.724  -8.457  18.925  0.00  0.00    -0.019 A 
HETATM    6  C   UNK     0       1.908  -9.409  18.672  0.00  0.00     0.019 A 
HETATM    7  C   UNK     0       1.248  -9.615  21.052  0.00  0.00     0.147 A 
HETATM    8  C   UNK     0       0.171  -7.595  17.775  0.00  0.00     0.106 A 
HETATM    9  C   UNK     0       2.538  -9.499  17.270  0.00  0.00     0.064 A 
HETATM   10  C   UNK     0       0.801  -7.685  16.373  0.00  0.00     0.076 A 
HETATM   11  C   UNK     0       1.984  -8.637  16.120  0.00  0.00     0.072 A 
ENDROOT
BRANCH   4  12
HETATM   12  C   UNK     0      -0.818  -7.822  21.094  0.00  0.00     0.101 C 
BRANCH  12  13
HETATM   13  C   UNK     0      -0.682  -7.424  22.575  0.00  0.00     0.020 A 
HETATM   14  N   UNK     0      -1.013  -8.315  23.786  0.00  0.00    -0.362 N 
HETATM   15  C   UNK     0      -0.727  -7.506  25.065  0.00  0.00     0.020 A 
HETATM   16  HN  UNK     0      -1.360  -9.274  23.748  1.00  0.00     0.165 HD
HETATM   17  C   UNK     0      -0.220  -6.114  24.644  0.00  0.00     0.044 A 
HETATM   18  C   UNK     0      -0.916  -8.001  26.511  0.00  0.00     0.069 C 
HETATM   19  C   UNK     0      -0.193  -6.063  23.106  0.00  0.00    -0.023 A 
HETATM   20  C   UNK     0       0.248  -4.863  22.247  0.00  0.00     0.051 C 
BRANCH  17  21
HETATM   21  C   UNK     0       0.187  -4.974  25.595  0.00  0.00     0.148 C 
BRANCH  21  22
HETATM   22  O   UNK     0       1.650  -4.842  26.057  0.00  0.00    -0.346 OA
HETATM   23  HO  UNK     0       1.921  -5.218  26.887  1.00  0.00     0.219 HD
ENDBRANCH  21  22
BRANCH  21  24
HETATM   24  N   UNK     0      -0.869  -3.964  26.083  0.00  0.00    -0.369 N 
HETATM   25  HN  UNK     0      -0.823  -3.597  27.034  1.00  0.00     0.161 HD
BRANCH  24  26
HETATM   26  C   UNK     0      -1.995  -3.509  25.136  0.00  0.00     0.141 C 
BRANCH  26  27
HETATM   27  C   UNK     0      -1.959  -2.097  24.522  0.00  0.00     0.136 C 
BRANCH  27  28
HETATM   28  N   UNK     0      -2.044  -1.920  22.994  0.00  0.00    -0.412 N 
BRANCH  28  29
HETATM   29  C   UNK     0      -3.166  -2.613  22.199  0.00  0.00     0.112 C 
HETATM   30  C   UNK     0      -4.265  -1.770  21.524  0.00  0.00     0.026 C 
ENDBRANCH  28  29
BRANCH  28  31
HETATM   31  C   UNK     0      -1.006  -1.049  22.262  0.00  0.00     0.112 C 
HETATM   32  C   UNK     0      -0.548  -1.429  20.841  0.00  0.00     0.026 C 
ENDBRANCH  28  31
ENDBRANCH  27  28
ENDBRANCH  26  27
ENDBRANCH  24  26
ENDBRANCH  21  24
ENDBRANCH  17  21
ENDBRANCH  12  13
ENDBRANCH   4  12
BRANCH   7  33
HETATM   33  O   UNK     0       1.204 -10.061  22.526  0.00  0.00    -0.346 OA
HETATM   34  HO  UNK     0       0.473  -9.945  23.122  1.00  0.00     0.219 HD
ENDBRANCH   7  33
TORSDOF 11
ENDMDL
