MODEL 20
REMARK VINA RESULT:      -5.9      9.277     12.457
REMARK  11 active torsions:
REMARK  status: ('A' for Active; 'I' for Inactive)
REMARK    1  A    between atoms: O_2  and  C_21 
REMARK    2  A    between atoms: O_4  and  C_28 
REMARK    3  A    between atoms: N_6  and  C_13 
REMARK    4  A    between atoms: N_6  and  C_19 
REMARK    5  A    between atoms: N_6  and  C_20 
REMARK    6  A    between atoms: N_9  and  C_17 
REMARK    7  A    between atoms: N_9  and  C_21 
REMARK    8  A    between atoms: C_13  and  C_17 
REMARK    9  A    between atoms: C_14  and  C_21 
REMARK   10  A    between atoms: C_16  and  C_23 
REMARK   11  A    between atoms: C_22  and  C_23 
ROOT
HETATM    1  F   UNK     0      -1.423  -6.493  20.061  0.00  0.00    -0.215 F 
HETATM    2  N   UNK     0       1.238 -10.550  23.799  0.00  0.00    -0.340 N 
HETATM    3  HN  UNK     0       1.947 -11.276  23.691  1.00  0.00     0.168 HD
HETATM    4  C   UNK     0      -0.464  -9.048  24.797  0.00  0.00     0.007 A 
HETATM    5  C   UNK     0      -0.343  -8.699  23.311  0.00  0.00    -0.019 A 
HETATM    6  C   UNK     0       0.714  -9.632  22.692  0.00  0.00     0.019 A 
HETATM    7  C   UNK     0       0.510 -10.190  25.098  0.00  0.00     0.147 A 
HETATM    8  C   UNK     0      -1.055  -7.652  22.434  0.00  0.00     0.106 A 
HETATM    9  C   UNK     0       1.059  -9.518  21.195  0.00  0.00     0.064 A 
HETATM   10  C   UNK     0      -0.710  -7.539  20.938  0.00  0.00     0.076 A 
HETATM   11  C   UNK     0       0.347  -8.472  20.318  0.00  0.00     0.072 A 
ENDROOT
BRANCH   4  12
HETATM   12  C   UNK     0      -1.403  -8.370  25.812  0.00  0.00     0.101 C 
BRANCH  12  13
HETATM   13  C   UNK     0      -1.961  -6.964  25.524  0.00  0.00     0.020 A 
HETATM   14  N   UNK     0      -1.210  -5.634  25.719  0.00  0.00    -0.362 N 
HETATM   15  C   UNK     0      -2.154  -4.490  25.306  0.00  0.00     0.020 A 
HETATM   16  HN  UNK     0      -0.255  -5.530  26.062  1.00  0.00     0.165 HD
HETATM   17  C   UNK     0      -3.488  -5.112  24.855  0.00  0.00     0.044 A 
HETATM   18  C   UNK     0      -1.821  -2.986  25.338  0.00  0.00     0.069 C 
HETATM   19  C   UNK     0      -3.369  -6.641  24.990  0.00  0.00    -0.023 A 
HETATM   20  C   UNK     0      -4.466  -7.668  24.650  0.00  0.00     0.051 C 
BRANCH  17  21
HETATM   21  C   UNK     0      -4.724  -4.341  24.357  0.00  0.00     0.148 C 
BRANCH  21  22
HETATM   22  O   UNK     0      -5.954  -4.184  25.271  0.00  0.00    -0.346 OA
HETATM   23  HO  UNK     0      -5.981  -4.628  26.111  1.00  0.00     0.219 HD
ENDBRANCH  21  22
BRANCH  21  24
HETATM   24  N   UNK     0      -4.731  -3.725  22.946  0.00  0.00    -0.369 N 
HETATM   25  HN  UNK     0      -4.943  -4.308  22.135  1.00  0.00     0.161 HD
BRANCH  24  26
HETATM   26  C   UNK     0      -4.416  -2.229  22.757  0.00  0.00     0.141 C 
BRANCH  26  27
HETATM   27  C   UNK     0      -5.103  -1.180  23.651  0.00  0.00     0.136 C 
BRANCH  27  28
HETATM   28  N   UNK     0      -6.211  -0.280  23.071  0.00  0.00    -0.412 N 
BRANCH  28  29
HETATM   29  C   UNK     0      -7.685  -0.719  23.160  0.00  0.00     0.112 C 
HETATM   30  C   UNK     0      -8.144  -1.648  24.299  0.00  0.00     0.026 C 
ENDBRANCH  28  29
BRANCH  28  31
HETATM   31  C   UNK     0      -5.844   1.058  22.403  0.00  0.00     0.112 C 
HETATM   32  C   UNK     0      -5.489   1.098  20.904  0.00  0.00     0.026 C 
ENDBRANCH  28  31
ENDBRANCH  27  28
ENDBRANCH  26  27
ENDBRANCH  24  26
ENDBRANCH  21  24
ENDBRANCH  17  21
ENDBRANCH  12  13
ENDBRANCH   4  12
BRANCH   7  33
HETATM   33  O   UNK     0       0.723 -10.860  26.469  0.00  0.00    -0.346 OA
HETATM   34  HO  UNK     0       0.435 -10.518  27.307  1.00  0.00     0.219 HD
ENDBRANCH   7  33
TORSDOF 11
ENDMDL
