MODEL 11
REMARK VINA RESULT:      -6.6      8.994     11.384
REMARK  11 active torsions:
REMARK  status: ('A' for Active; 'I' for Inactive)
REMARK    1  A    between atoms: O_2  and  C_21 
REMARK    2  A    between atoms: O_4  and  C_28 
REMARK    3  A    between atoms: N_6  and  C_13 
REMARK    4  A    between atoms: N_6  and  C_19 
REMARK    5  A    between atoms: N_6  and  C_20 
REMARK    6  A    between atoms: N_9  and  C_17 
REMARK    7  A    between atoms: N_9  and  C_21 
REMARK    8  A    between atoms: C_13  and  C_17 
REMARK    9  A    between atoms: C_14  and  C_21 
REMARK   10  A    between atoms: C_16  and  C_23 
REMARK   11  A    between atoms: C_22  and  C_23 
ROOT
HETATM    1  F   UNK     0      -1.344  -6.436  20.284  0.00  0.00    -0.215 F 
HETATM    2  N   UNK     0       1.223 -10.701  23.853  0.00  0.00    -0.340 N 
HETATM    3  HN  UNK     0       1.941 -11.414  23.725  1.00  0.00     0.168 HD
HETATM    4  C   UNK     0      -0.524  -9.275  24.883  0.00  0.00     0.007 A 
HETATM    5  C   UNK     0      -0.356  -8.833  23.427  0.00  0.00    -0.019 A 
HETATM    6  C   UNK     0       0.729  -9.719  22.787  0.00  0.00     0.019 A 
HETATM    7  C   UNK     0       0.449 -10.427  25.146  0.00  0.00     0.147 A 
HETATM    8  C   UNK     0      -1.047  -7.739  22.592  0.00  0.00     0.106 A 
HETATM    9  C   UNK     0       1.123  -9.511  21.313  0.00  0.00     0.064 A 
HETATM   10  C   UNK     0      -0.653  -7.531  21.119  0.00  0.00     0.076 A 
HETATM   11  C   UNK     0       0.432  -8.417  20.479  0.00  0.00     0.072 A 
ENDROOT
BRANCH   4  12
HETATM   12  C   UNK     0      -1.502  -8.666  25.905  0.00  0.00     0.101 C 
BRANCH  12  13
HETATM   13  C   UNK     0      -1.966  -7.206  25.752  0.00  0.00     0.020 A 
HETATM   14  N   UNK     0      -1.182  -5.956  26.192  0.00  0.00    -0.362 N 
HETATM   15  C   UNK     0      -2.027  -4.717  25.844  0.00  0.00     0.020 A 
HETATM   16  HN  UNK     0      -0.264  -5.950  26.636  1.00  0.00     0.165 HD
HETATM   17  C   UNK     0      -3.334  -5.201  25.189  0.00  0.00     0.044 A 
HETATM   18  C   UNK     0      -1.635  -3.251  26.105  0.00  0.00     0.069 C 
HETATM   19  C   UNK     0      -3.296  -6.739  25.132  0.00  0.00    -0.023 A 
HETATM   20  C   UNK     0      -4.396  -7.651  24.556  0.00  0.00     0.051 C 
BRANCH  17  21
HETATM   21  C   UNK     0      -4.477  -4.304  24.680  0.00  0.00     0.148 C 
BRANCH  21  22
HETATM   22  O   UNK     0      -5.636  -3.924  25.621  0.00  0.00    -0.346 OA
HETATM   23  HO  UNK     0      -5.548  -3.181  26.206  1.00  0.00     0.219 HD
ENDBRANCH  21  22
BRANCH  21  24
HETATM   24  N   UNK     0      -4.463  -3.787  23.229  0.00  0.00    -0.369 N 
HETATM   25  HN  UNK     0      -5.142  -4.140  22.554  1.00  0.00     0.161 HD
BRANCH  24  26
HETATM   26  C   UNK     0      -3.423  -2.737  22.797  0.00  0.00     0.141 C 
BRANCH  26  27
HETATM   27  C   UNK     0      -2.896  -2.726  21.350  0.00  0.00     0.136 C 
BRANCH  27  28
HETATM   28  N   UNK     0      -2.602  -1.386  20.647  0.00  0.00    -0.412 N 
BRANCH  28  29
HETATM   29  C   UNK     0      -1.212  -0.736  20.780  0.00  0.00     0.112 C 
HETATM   30  C   UNK     0       0.004  -1.594  21.174  0.00  0.00     0.026 C 
ENDBRANCH  28  29
BRANCH  28  31
HETATM   31  C   UNK     0      -3.698  -0.698  19.813  0.00  0.00     0.112 C 
HETATM   32  C   UNK     0      -5.161  -0.718  20.298  0.00  0.00     0.026 C 
ENDBRANCH  28  31
ENDBRANCH  27  28
ENDBRANCH  26  27
ENDBRANCH  24  26
ENDBRANCH  21  24
ENDBRANCH  17  21
ENDBRANCH  12  13
ENDBRANCH   4  12
BRANCH   7  33
HETATM   33  O   UNK     0       0.620 -11.179  26.479  0.00  0.00    -0.346 OA
HETATM   34  HO  UNK     0       0.301 -10.892  27.327  1.00  0.00     0.219 HD
ENDBRANCH   7  33
TORSDOF 11
ENDMDL
