MODEL 18
REMARK VINA RESULT:      -6.1      9.800     12.346
REMARK  11 active torsions:
REMARK  status: ('A' for Active; 'I' for Inactive)
REMARK    1  A    between atoms: O_2  and  C_21 
REMARK    2  A    between atoms: O_4  and  C_28 
REMARK    3  A    between atoms: N_6  and  C_13 
REMARK    4  A    between atoms: N_6  and  C_19 
REMARK    5  A    between atoms: N_6  and  C_20 
REMARK    6  A    between atoms: N_9  and  C_17 
REMARK    7  A    between atoms: N_9  and  C_21 
REMARK    8  A    between atoms: C_13  and  C_17 
REMARK    9  A    between atoms: C_14  and  C_21 
REMARK   10  A    between atoms: C_16  and  C_23 
REMARK   11  A    between atoms: C_22  and  C_23 
ROOT
HETATM    1  F   UNK     0      -6.535  -6.630  26.483  0.00  0.00    -0.215 F 
HETATM    2  N   UNK     0      -1.125  -7.017  23.637  0.00  0.00    -0.340 N 
HETATM    3  HN  UNK     0      -0.580  -7.773  23.220  1.00  0.00     0.168 HD
HETATM    4  C   UNK     0      -1.831  -4.770  24.410  0.00  0.00     0.007 A 
HETATM    5  C   UNK     0      -2.930  -5.765  24.792  0.00  0.00    -0.019 A 
HETATM    6  C   UNK     0      -2.492  -7.161  24.312  0.00  0.00     0.019 A 
HETATM    7  C   UNK     0      -0.718  -5.542  23.697  0.00  0.00     0.147 A 
HETATM    8  C   UNK     0      -4.278  -5.588  25.516  0.00  0.00     0.106 A 
HETATM    9  C   UNK     0      -3.401  -8.380  24.556  0.00  0.00     0.064 A 
HETATM   10  C   UNK     0      -5.187  -6.807  25.759  0.00  0.00     0.076 A 
HETATM   11  C   UNK     0      -4.748  -8.203  25.279  0.00  0.00     0.072 A 
ENDROOT
BRANCH   4  12
HETATM   12  C   UNK     0      -1.843  -3.256  24.692  0.00  0.00     0.101 C 
BRANCH  12  13
HETATM   13  C   UNK     0      -1.997  -2.257  23.530  0.00  0.00     0.020 A 
HETATM   14  N   UNK     0      -2.085  -2.614  22.036  0.00  0.00    -0.362 N 
HETATM   15  C   UNK     0      -2.233  -1.303  21.242  0.00  0.00     0.020 A 
HETATM   16  HN  UNK     0      -2.052  -3.554  21.640  1.00  0.00     0.165 HD
HETATM   17  C   UNK     0      -2.236  -0.135  22.246  0.00  0.00     0.044 A 
HETATM   18  C   UNK     0      -2.356  -1.180  19.711  0.00  0.00     0.069 C 
HETATM   19  C   UNK     0      -2.090  -0.725  23.660  0.00  0.00    -0.023 A 
HETATM   20  C   UNK     0      -2.045   0.076  24.975  0.00  0.00     0.051 C 
BRANCH  17  21
HETATM   21  C   UNK     0      -2.362   1.359  21.896  0.00  0.00     0.148 C 
BRANCH  21  22
HETATM   22  O   UNK     0      -1.106   2.174  21.536  0.00  0.00    -0.346 OA
HETATM   23  HO  UNK     0      -0.865   2.297  20.625  1.00  0.00     0.219 HD
ENDBRANCH  21  22
BRANCH  21  24
HETATM   24  N   UNK     0      -3.744   2.038  21.908  0.00  0.00    -0.369 N 
HETATM   25  HN  UNK     0      -3.873   2.925  22.396  1.00  0.00     0.161 HD
BRANCH  24  26
HETATM   26  C   UNK     0      -4.932   1.378  21.183  0.00  0.00     0.141 C 
BRANCH  26  27
HETATM   27  C   UNK     0      -6.217   1.040  21.962  0.00  0.00     0.136 C 
BRANCH  27  28
HETATM   28  N   UNK     0      -6.357  -0.325  22.662  0.00  0.00    -0.412 N 
BRANCH  28  29
HETATM   29  C   UNK     0      -6.807  -1.560  21.859  0.00  0.00     0.112 C 
HETATM   30  C   UNK     0      -8.129  -2.266  22.209  0.00  0.00     0.026 C 
ENDBRANCH  28  29
BRANCH  28  31
HETATM   31  C   UNK     0      -6.048  -0.454  24.165  0.00  0.00     0.112 C 
HETATM   32  C   UNK     0      -5.461  -1.767  24.720  0.00  0.00     0.026 C 
ENDBRANCH  28  31
ENDBRANCH  27  28
ENDBRANCH  26  27
ENDBRANCH  24  26
ENDBRANCH  21  24
ENDBRANCH  17  21
ENDBRANCH  12  13
ENDBRANCH   4  12
BRANCH   7  33
HETATM   33  O   UNK     0       0.585  -4.941  23.139  0.00  0.00    -0.346 OA
HETATM   34  HO  UNK     0       0.673  -4.094  22.717  1.00  0.00     0.219 HD
ENDBRANCH   7  33
TORSDOF 11
ENDMDL
