MODEL 19
REMARK VINA RESULT:      -6.0      9.754     12.693
REMARK  11 active torsions:
REMARK  status: ('A' for Active; 'I' for Inactive)
REMARK    1  A    between atoms: O_2  and  C_21 
REMARK    2  A    between atoms: O_4  and  C_28 
REMARK    3  A    between atoms: N_6  and  C_13 
REMARK    4  A    between atoms: N_6  and  C_19 
REMARK    5  A    between atoms: N_6  and  C_20 
REMARK    6  A    between atoms: N_9  and  C_17 
REMARK    7  A    between atoms: N_9  and  C_21 
REMARK    8  A    between atoms: C_13  and  C_17 
REMARK    9  A    between atoms: C_14  and  C_21 
REMARK   10  A    between atoms: C_16  and  C_23 
REMARK   11  A    between atoms: C_22  and  C_23 
ROOT
HETATM    1  F   UNK     0      -2.848  -9.537  25.783  0.00  0.00    -0.215 F 
HETATM    2  N   UNK     0       0.322  -5.832  22.075  0.00  0.00    -0.340 N 
HETATM    3  HN  UNK     0       1.090  -5.955  21.415  1.00  0.00     0.168 HD
HETATM    4  C   UNK     0      -1.470  -4.795  23.439  0.00  0.00     0.007 A 
HETATM    5  C   UNK     0      -1.441  -6.290  23.762  0.00  0.00    -0.019 A 
HETATM    6  C   UNK     0      -0.328  -6.935  22.915  0.00  0.00     0.019 A 
HETATM    7  C   UNK     0      -0.383  -4.511  22.399  0.00  0.00     0.147 A 
HETATM    8  C   UNK     0      -2.281  -7.158  24.718  0.00  0.00     0.106 A 
HETATM    9  C   UNK     0      -0.055  -8.447  23.024  0.00  0.00     0.064 A 
HETATM   10  C   UNK     0      -2.008  -8.669  24.827  0.00  0.00     0.076 A 
HETATM   11  C   UNK     0      -0.895  -9.313  23.980  0.00  0.00     0.072 A 
ENDROOT
BRANCH   4  12
HETATM   12  C   UNK     0      -2.426  -3.755  24.053  0.00  0.00     0.101 C 
BRANCH  12  13
HETATM   13  C   UNK     0      -2.944  -2.584  23.196  0.00  0.00     0.020 A 
HETATM   14  N   UNK     0      -3.973  -2.682  22.056  0.00  0.00    -0.362 N 
HETATM   15  C   UNK     0      -4.187  -1.268  21.485  0.00  0.00     0.020 A 
HETATM   16  HN  UNK     0      -4.432  -3.534  21.734  1.00  0.00     0.165 HD
HETATM   17  C   UNK     0      -3.290  -0.295  22.273  0.00  0.00     0.044 A 
HETATM   18  C   UNK     0      -5.132  -0.892  20.329  0.00  0.00     0.069 C 
HETATM   19  C   UNK     0      -2.522  -1.109  23.331  0.00  0.00    -0.023 A 
HETATM   20  C   UNK     0      -1.509  -0.546  24.346  0.00  0.00     0.051 C 
BRANCH  17  21
HETATM   21  C   UNK     0      -3.181   1.223  22.044  0.00  0.00     0.148 C 
BRANCH  21  22
HETATM   22  O   UNK     0      -1.927   1.813  21.372  0.00  0.00    -0.346 OA
HETATM   23  HO  UNK     0      -1.202   2.118  21.905  1.00  0.00     0.219 HD
ENDBRANCH  21  22
BRANCH  21  24
HETATM   24  N   UNK     0      -4.326   2.153  22.487  0.00  0.00    -0.369 N 
HETATM   25  HN  UNK     0      -4.397   2.447  23.462  1.00  0.00     0.161 HD
BRANCH  24  26
HETATM   26  C   UNK     0      -5.365   2.638  21.459  0.00  0.00     0.141 C 
BRANCH  26  27
HETATM   27  C   UNK     0      -6.777   3.040  21.923  0.00  0.00     0.136 C 
BRANCH  27  28
HETATM   28  N   UNK     0      -7.182   2.865  23.399  0.00  0.00    -0.412 N 
BRANCH  28  29
HETATM   29  C   UNK     0      -6.977   4.021  24.396  0.00  0.00     0.112 C 
HETATM   30  C   UNK     0      -5.696   4.083  25.249  0.00  0.00     0.026 C 
ENDBRANCH  28  29
BRANCH  28  31
HETATM   31  C   UNK     0      -7.792   1.535  23.877  0.00  0.00     0.112 C 
HETATM   32  C   UNK     0      -7.684   0.277  22.994  0.00  0.00     0.026 C 
ENDBRANCH  28  31
ENDBRANCH  27  28
ENDBRANCH  26  27
ENDBRANCH  24  26
ENDBRANCH  21  24
ENDBRANCH  17  21
ENDBRANCH  12  13
ENDBRANCH   4  12
BRANCH   7  33
HETATM   33  O   UNK     0      -0.056  -3.138  21.784  0.00  0.00    -0.346 OA
HETATM   34  HO  UNK     0       0.594  -2.968  21.112  1.00  0.00     0.219 HD
ENDBRANCH   7  33
TORSDOF 11
ENDMDL
