MODEL 1
REMARK VINA RESULT:      -8.6      0.000      0.000
REMARK  11 active torsions:
REMARK  status: ('A' for Active; 'I' for Inactive)
REMARK    1  A    between atoms: O_2  and  C_21 
REMARK    2  A    between atoms: O_4  and  C_28 
REMARK    3  A    between atoms: N_6  and  C_13 
REMARK    4  A    between atoms: N_6  and  C_19 
REMARK    5  A    between atoms: N_6  and  C_20 
REMARK    6  A    between atoms: N_9  and  C_17 
REMARK    7  A    between atoms: N_9  and  C_21 
REMARK    8  A    between atoms: C_13  and  C_17 
REMARK    9  A    between atoms: C_14  and  C_21 
REMARK   10  A    between atoms: C_16  and  C_23 
REMARK   11  A    between atoms: C_22  and  C_23 
ROOT
HETATM    1  F   UNK     0      -1.394  -7.499  22.404  0.00  0.00    -0.215 F 
HETATM    2  N   UNK     0       2.473 -10.067  18.407  0.00  0.00    -0.340 N 
HETATM    3  HN  UNK     0       3.149 -10.830  18.444  1.00  0.00     0.168 HD
HETATM    4  C   UNK     0       1.088  -8.184  17.582  0.00  0.00     0.007 A 
HETATM    5  C   UNK     0       0.732  -8.418  19.052  0.00  0.00    -0.019 A 
HETATM    6  C   UNK     0       1.593  -9.588  19.565  0.00  0.00     0.019 A 
HETATM    7  C   UNK     0       2.161  -9.200  17.184  0.00  0.00     0.147 A 
HETATM    8  C   UNK     0      -0.263  -7.722  19.999  0.00  0.00     0.106 A 
HETATM    9  C   UNK     0       1.458 -10.062  21.024  0.00  0.00     0.064 A 
HETATM   10  C   UNK     0      -0.398  -8.196  21.457  0.00  0.00     0.076 A 
HETATM   11  C   UNK     0       0.462  -9.365  21.970  0.00  0.00     0.072 A 
ENDROOT
BRANCH   4  12
HETATM   12  C   UNK     0       0.473  -7.112  16.662  0.00  0.00     0.101 C 
BRANCH  12  13
HETATM   13  C   UNK     0       0.502  -7.300  15.134  0.00  0.00     0.020 A 
HETATM   14  N   UNK     0      -0.148  -8.455  14.352  0.00  0.00    -0.362 N 
HETATM   15  C   UNK     0       0.135  -8.234  12.854  0.00  0.00     0.020 A 
HETATM   16  HN  UNK     0      -0.673  -9.231  14.754  1.00  0.00     0.165 HD
HETATM   17  C   UNK     0       0.960  -6.941  12.711  0.00  0.00     0.044 A 
HETATM   18  C   UNK     0      -0.326  -9.145  11.701  0.00  0.00     0.069 C 
HETATM   19  C   UNK     0       1.187  -6.364  14.120  0.00  0.00    -0.023 A 
HETATM   20  C   UNK     0       1.962  -5.077  14.457  0.00  0.00     0.051 C 
BRANCH  17  21
HETATM   21  C   UNK     0       1.469  -6.333  11.391  0.00  0.00     0.148 C 
BRANCH  21  22
HETATM   22  O   UNK     0       1.389  -7.148  10.086  0.00  0.00    -0.346 OA
HETATM   23  HO  UNK     0       1.992  -7.868   9.938  1.00  0.00     0.219 HD
ENDBRANCH  21  22
BRANCH  21  24
HETATM   24  N   UNK     0       2.057  -4.910  11.375  0.00  0.00    -0.369 N 
HETATM   25  HN  UNK     0       1.491  -4.120  11.687  1.00  0.00     0.161 HD
BRANCH  24  26
HETATM   26  C   UNK     0       3.500  -4.680  10.889  0.00  0.00     0.141 C 
BRANCH  26  27
HETATM   27  C   UNK     0       3.759  -4.185   9.454  0.00  0.00     0.136 C 
BRANCH  27  28
HETATM   28  N   UNK     0       4.864  -3.145   9.185  0.00  0.00    -0.412 N 
BRANCH  28  29
HETATM   29  C   UNK     0       4.725  -2.161   8.008  0.00  0.00     0.112 C 
HETATM   30  C   UNK     0       3.961  -2.581   6.739  0.00  0.00     0.026 C 
ENDBRANCH  28  29
BRANCH  28  31
HETATM   31  C   UNK     0       6.106  -3.091  10.092  0.00  0.00     0.112 C 
HETATM   32  C   UNK     0       7.387  -3.847   9.689  0.00  0.00     0.026 C 
ENDBRANCH  28  31
ENDBRANCH  27  28
ENDBRANCH  26  27
ENDBRANCH  24  26
ENDBRANCH  21  24
ENDBRANCH  17  21
ENDBRANCH  12  13
ENDBRANCH   4  12
BRANCH   7  33
HETATM   33  O   UNK     0       2.814  -9.329  15.795  0.00  0.00    -0.346 OA
HETATM   34  HO  UNK     0       3.359 -10.049  15.499  1.00  0.00     0.219 HD
ENDBRANCH   7  33
TORSDOF 11
ENDMDL
