MODEL 1
REMARK VINA RESULT:      -9.9      0.000      0.000
REMARK  5 active torsions:
REMARK  status: ('A' for Active; 'I' for Inactive)
REMARK    1  A    between atoms: N_1  and  C_5 
REMARK    2  A    between atoms: N_1  and  C_6 
REMARK    3  A    between atoms: N_3  and  C_9 
REMARK    4  A    between atoms: N_3  and  C_22 
REMARK    5  A    between atoms: O_17  and  C_18 
ROOT
HETATM    1  N   UNK     0       0.190  -9.360  21.457  0.00  0.00    -0.199 N 
HETATM    2  HN  UNK     0      -0.096 -10.285  21.776  1.00  0.00     0.183 HD
ENDROOT
BRANCH   1   3
HETATM    3  C   UNK     0       0.032  -8.142  22.387  0.00  0.00     0.016 A 
HETATM    4  C   UNK     0      -0.309  -8.348  23.874  0.00  0.00     0.120 A 
HETATM    5  C   UNK     0      -0.467  -7.131  24.804  0.00  0.00     0.087 A 
HETATM    6  C   UNK     0      -0.283  -5.708  24.246  0.00  0.00     0.128 A 
HETATM    7  O   UNK     0      -0.808  -7.337  26.291  0.00  0.00    -0.350 OA
HETATM    8  C   UNK     0       0.059  -5.501  22.759  0.00  0.00     0.086 A 
HETATM    9  O   UNK     0      -0.441  -4.490  25.176  0.00  0.00    -0.344 OA
HETATM   10  C   UNK     0       0.216  -6.719  21.829  0.00  0.00     0.120 A 
HETATM   11  C   UNK     0      -0.782  -4.696  26.663  0.00  0.00     0.202 A 
HETATM   12  C   UNK     0      -0.966  -6.120  27.221  0.00  0.00     0.202 A 
BRANCH   8  13
HETATM   13  O   UNK     0       0.243  -4.077  22.201  0.00  0.00    -0.357 OA
HETATM   14  C   UNK     0      -0.988  -3.235  21.820  0.00  0.00     0.209 C 
ENDBRANCH   8  13
ENDBRANCH   1   3
BRANCH   1  15
HETATM   15  C   UNK     0       0.779  -9.180  20.045  0.00  0.00     0.679 A 
HETATM   16  N   UNK     0       2.113  -9.855  19.675  0.00  0.00    -0.226 N 
HETATM   17  C   UNK     0       2.701  -9.675  18.264  0.00  0.00     0.145 A 
HETATM   18  HN  UNK     0       2.606 -10.423  20.365  1.00  0.00     0.177 HD
HETATM   19  C   UNK     0       1.957  -8.819  17.223  0.00  0.00     0.097 A 
HETATM   20  C   UNK     0       0.624  -8.143  17.592  0.00  0.00     0.099 A 
HETATM   21  N   UNK     0       0.035  -8.323  19.004  0.00  0.00    -0.181 N 
HETATM   22  HN  UNK     0      -0.848  -7.876  19.249  1.00  0.00     0.185 HD
BRANCH  20  23
HETATM   23  N   UNK     0      -0.121  -7.287  16.551  0.00  0.00    -0.352 N 
HETATM   24  HN  UNK     0      -1.070  -6.965  16.740  1.00  0.00     0.166 HD
BRANCH  23  25
HETATM   25  C   UNK     0       0.568  -6.915  15.225  0.00  0.00    -0.006 A 
HETATM   26  C   UNK     0       1.694  -5.864  15.210  0.00  0.00     0.057 A 
HETATM   27  C   UNK     0       2.382  -5.493  13.883  0.00  0.00     0.048 A 
HETATM   28  C   UNK     0       1.946  -6.173  12.572  0.00  0.00    -0.010 A 
HETATM   29  C   UNK     0       2.432  -6.017  11.120  0.00  0.00     0.030 A 
HETATM   30  C   UNK     0       0.820  -7.224  12.587  0.00  0.00     0.039 A 
HETATM   31  C   UNK     0       3.547  -5.073  10.634  0.00  0.00     0.070 C 
HETATM   32  N   UNK     0       1.607  -6.972  10.237  0.00  0.00    -0.304 N 
HETATM   33  N   UNK     0       0.610  -7.718  11.145  0.00  0.00    -0.304 N 
HETATM   34  HN  UNK     0       1.703  -7.090   9.229  1.00  0.00     0.186 HD
HETATM   35  HN  UNK     0      -0.069  -8.416  10.843  1.00  0.00     0.186 HD
HETATM   36  C   UNK     0       0.131  -7.595  13.914  0.00  0.00     0.111 A 
ENDBRANCH  23  25
ENDBRANCH  20  23
ENDBRANCH   1  15
TORSDOF 5
ENDMDL
MODEL 2
REMARK VINA RESULT:      -9.5      5.762     11.905
REMARK  5 active torsions:
REMARK  status: ('A' for Active; 'I' for Inactive)
REMARK    1  A    between atoms: N_1  and  C_5 
REMARK    2  A    between atoms: N_1  and  C_6 
REMARK    3  A    between atoms: N_3  and  C_9 
REMARK    4  A    between atoms: N_3  and  C_22 
REMARK    5  A    between atoms: O_17  and  C_18 
ROOT
HETATM    1  N   UNK     0       2.823  -6.139  11.078  0.00  0.00    -0.199 N 
HETATM    2  HN  UNK     0       2.483  -6.880  10.465  1.00  0.00     0.183 HD
ENDROOT
BRANCH   1   3
HETATM    3  C   UNK     0       3.703  -5.011  10.508  0.00  0.00     0.016 A 
HETATM    4  C   UNK     0       5.187  -4.917  10.908  0.00  0.00     0.120 A 
HETATM    5  C   UNK     0       6.068  -3.789  10.338  0.00  0.00     0.087 A 
HETATM    6  C   UNK     0       5.465  -2.756   9.369  0.00  0.00     0.128 A 
HETATM    7  O   UNK     0       7.552  -3.695  10.738  0.00  0.00    -0.350 OA
HETATM    8  C   UNK     0       3.981  -2.851   8.968  0.00  0.00     0.086 A 
HETATM    9  O   UNK     0       6.346  -1.629   8.799  0.00  0.00    -0.344 OA
HETATM   10  C   UNK     0       3.100  -3.978   9.538  0.00  0.00     0.120 A 
HETATM   11  C   UNK     0       7.829  -1.534   9.199  0.00  0.00     0.202 A 
HETATM   12  C   UNK     0       8.433  -2.567  10.169  0.00  0.00     0.202 A 
BRANCH   8  13
HETATM   13  O   UNK     0       3.377  -1.818   7.998  0.00  0.00    -0.357 OA
HETATM   14  C   UNK     0       3.512  -2.019   6.478  0.00  0.00     0.209 C 
ENDBRANCH   8  13
ENDBRANCH   1   3
BRANCH   1  15
HETATM   15  C   UNK     0       2.455  -6.148  12.573  0.00  0.00     0.679 A 
HETATM   16  N   UNK     0       1.917  -4.869  13.242  0.00  0.00    -0.226 N 
HETATM   17  C   UNK     0       1.550  -4.879  14.737  0.00  0.00     0.145 A 
HETATM   18  HN  UNK     0       1.804  -4.016  12.694  1.00  0.00     0.177 HD
HETATM   19  C   UNK     0       1.721  -6.166  15.564  0.00  0.00     0.097 A 
HETATM   20  C   UNK     0       2.259  -7.445  14.896  0.00  0.00     0.099 A 
HETATM   21  N   UNK     0       2.626  -7.436  13.400  0.00  0.00    -0.181 N 
HETATM   22  HN  UNK     0       2.983  -8.282  12.958  1.00  0.00     0.185 HD
BRANCH  20  23
HETATM   23  N   UNK     0       2.430  -8.733  15.723  0.00  0.00    -0.352 N 
HETATM   24  HN  UNK     0       2.885  -9.547  15.311  1.00  0.00     0.166 HD
BRANCH  23  25
HETATM   25  C   UNK     0       1.914  -8.791  17.172  0.00  0.00    -0.006 A 
HETATM   26  C   UNK     0       2.619  -9.690  18.205  0.00  0.00     0.057 A 
HETATM   27  C   UNK     0       2.102  -9.748  19.655  0.00  0.00     0.048 A 
HETATM   28  C   UNK     0       0.881  -8.908  20.072  0.00  0.00    -0.010 A 
HETATM   29  C   UNK     0       0.144  -8.757  21.416  0.00  0.00     0.030 A 
HETATM   30  C   UNK     0       0.175  -8.010  19.039  0.00  0.00     0.039 A 
HETATM   31  C   UNK     0       0.505  -9.472  22.731  0.00  0.00     0.070 C 
HETATM   32  N   UNK     0      -1.016  -7.765  21.213  0.00  0.00    -0.304 N 
HETATM   33  N   UNK     0      -0.997  -7.303  19.744  0.00  0.00    -0.304 N 
HETATM   34  HN  UNK     0      -1.681  -7.466  21.927  1.00  0.00     0.186 HD
HETATM   35  HN  UNK     0      -1.646  -6.645  19.314  1.00  0.00     0.186 HD
HETATM   36  C   UNK     0       0.692  -7.951  17.589  0.00  0.00     0.111 A 
ENDBRANCH  23  25
ENDBRANCH  20  23
ENDBRANCH   1  15
TORSDOF 5
ENDMDL
MODEL 3
REMARK VINA RESULT:      -9.3      6.769     12.769
REMARK  5 active torsions:
REMARK  status: ('A' for Active; 'I' for Inactive)
REMARK    1  A    between atoms: N_1  and  C_5 
REMARK    2  A    between atoms: N_1  and  C_6 
REMARK    3  A    between atoms: N_3  and  C_9 
REMARK    4  A    between atoms: N_3  and  C_22 
REMARK    5  A    between atoms: O_17  and  C_18 
ROOT
HETATM    1  N   UNK     0       4.634  -4.515  10.508  0.00  0.00    -0.199 N 
HETATM    2  HN  UNK     0       5.525  -4.721  10.958  1.00  0.00     0.183 HD
ENDROOT
BRANCH   1   3
HETATM    3  C   UNK     0       4.546  -3.401   9.449  0.00  0.00     0.016 A 
HETATM    4  C   UNK     0       3.172  -2.854   9.019  0.00  0.00     0.120 A 
HETATM    5  C   UNK     0       3.084  -1.739   7.960  0.00  0.00     0.087 A 
HETATM    6  C   UNK     0       4.369  -1.172   7.330  0.00  0.00     0.128 A 
HETATM    7  O   UNK     0       1.710  -1.192   7.530  0.00  0.00    -0.350 OA
HETATM    8  C   UNK     0       5.744  -1.719   7.760  0.00  0.00     0.086 A 
HETATM    9  O   UNK     0       4.281  -0.058   6.271  0.00  0.00    -0.344 OA
HETATM   10  C   UNK     0       5.832  -2.834   8.819  0.00  0.00     0.120 A 
HETATM   11  C   UNK     0       2.908   0.489   5.841  0.00  0.00     0.202 A 
HETATM   12  C   UNK     0       1.622  -0.078   6.471  0.00  0.00     0.202 A 
BRANCH   8  13
HETATM   13  O   UNK     0       7.030  -1.152   7.130  0.00  0.00    -0.357 OA
HETATM   14  C   UNK     0       7.598   0.192   7.620  0.00  0.00     0.209 C 
ENDBRANCH   8  13
ENDBRANCH   1   3
BRANCH   1  15
HETATM   15  C   UNK     0       3.375  -5.318  10.887  0.00  0.00     0.679 A 
HETATM   16  N   UNK     0       2.810  -6.370   9.914  0.00  0.00    -0.226 N 
HETATM   17  C   UNK     0       1.552  -7.172  10.294  0.00  0.00     0.145 A 
HETATM   18  HN  UNK     0       3.269  -6.534   9.018  1.00  0.00     0.177 HD
HETATM   19  C   UNK     0       0.859  -6.924  11.646  0.00  0.00     0.097 A 
HETATM   20  C   UNK     0       1.423  -5.873  12.619  0.00  0.00     0.099 A 
HETATM   21  N   UNK     0       2.682  -5.070  12.240  0.00  0.00    -0.181 N 
HETATM   22  HN  UNK     0       3.056  -4.374  12.884  1.00  0.00     0.185 HD
BRANCH  20  23
HETATM   23  N   UNK     0       0.730  -5.624  13.972  0.00  0.00    -0.352 N 
HETATM   24  HN  UNK     0       0.134  -4.807  14.096  1.00  0.00     0.166 HD
BRANCH  23  25
HETATM   25  C   UNK     0       0.938  -6.610  15.136  0.00  0.00    -0.006 A 
HETATM   26  C   UNK     0      -0.083  -6.667  16.288  0.00  0.00     0.057 A 
HETATM   27  C   UNK     0       0.125  -7.654  17.452  0.00  0.00     0.048 A 
HETATM   28  C   UNK     0       1.354  -8.583  17.465  0.00  0.00    -0.010 A 
HETATM   29  C   UNK     0       1.826  -9.652  18.467  0.00  0.00     0.030 A 
HETATM   30  C   UNK     0       2.374  -8.525  16.313  0.00  0.00     0.039 A 
HETATM   31  C   UNK     0       1.112 -10.048  19.773  0.00  0.00     0.070 C 
HETATM   32  N   UNK     0       3.139 -10.255  17.934  0.00  0.00    -0.304 N 
HETATM   33  N   UNK     0       3.478  -9.559  16.603  0.00  0.00    -0.304 N 
HETATM   34  HN  UNK     0       3.688 -10.987  18.384  1.00  0.00     0.186 HD
HETATM   35  HN  UNK     0       4.290  -9.749  16.016  1.00  0.00     0.186 HD
HETATM   36  C   UNK     0       2.166  -7.539  15.148  0.00  0.00     0.111 A 
ENDBRANCH  23  25
ENDBRANCH  20  23
ENDBRANCH   1  15
TORSDOF 5
ENDMDL
MODEL 4
REMARK VINA RESULT:      -9.3      1.274      2.538
REMARK  5 active torsions:
REMARK  status: ('A' for Active; 'I' for Inactive)
REMARK    1  A    between atoms: N_1  and  C_5 
REMARK    2  A    between atoms: N_1  and  C_6 
REMARK    3  A    between atoms: N_3  and  C_9 
REMARK    4  A    between atoms: N_3  and  C_22 
REMARK    5  A    between atoms: O_17  and  C_18 
ROOT
HETATM    1  N   UNK     0       0.477  -8.752  21.944  0.00  0.00    -0.199 N 
HETATM    2  HN  UNK     0       0.620  -9.556  22.554  1.00  0.00     0.183 HD
ENDROOT
BRANCH   1   3
HETATM    3  C   UNK     0      -0.227  -7.492  22.482  0.00  0.00     0.016 A 
HETATM    4  C   UNK     0       0.125  -6.108  21.906  0.00  0.00     0.120 A 
HETATM    5  C   UNK     0      -0.579  -4.849  22.444  0.00  0.00     0.087 A 
HETATM    6  C   UNK     0      -1.635  -4.973  23.558  0.00  0.00     0.128 A 
HETATM    7  O   UNK     0      -0.228  -3.465  21.867  0.00  0.00    -0.350 OA
HETATM    8  C   UNK     0      -1.986  -6.357  24.135  0.00  0.00     0.086 A 
HETATM    9  O   UNK     0      -2.339  -3.713  24.096  0.00  0.00    -0.344 OA
HETATM   10  C   UNK     0      -1.282  -7.617  23.597  0.00  0.00     0.120 A 
HETATM   11  C   UNK     0      -1.987  -2.330  23.520  0.00  0.00     0.202 A 
HETATM   12  C   UNK     0      -0.932  -2.205  22.405  0.00  0.00     0.202 A 
BRANCH   8  13
HETATM   13  O   UNK     0      -3.042  -6.482  25.249  0.00  0.00    -0.357 OA
HETATM   14  C   UNK     0      -4.540  -6.452  24.897  0.00  0.00     0.209 C 
ENDBRANCH   8  13
ENDBRANCH   1   3
BRANCH   1  15
HETATM   15  C   UNK     0       0.966  -8.796  20.484  0.00  0.00     0.679 A 
HETATM   16  N   UNK     0       2.281  -9.519  20.133  0.00  0.00    -0.226 N 
HETATM   17  C   UNK     0       2.769  -9.563  18.674  0.00  0.00     0.145 A 
HETATM   18  HN  UNK     0       2.827  -9.968  20.868  1.00  0.00     0.177 HD
HETATM   19  C   UNK     0       1.943  -8.885  17.565  0.00  0.00     0.097 A 
HETATM   20  C   UNK     0       0.630  -8.163  17.915  0.00  0.00     0.099 A 
HETATM   21  N   UNK     0       0.141  -8.118  19.375  0.00  0.00    -0.181 N 
HETATM   22  HN  UNK     0      -0.729  -7.640  19.606  1.00  0.00     0.185 HD
BRANCH  20  23
HETATM   23  N   UNK     0      -0.196  -7.485  16.805  0.00  0.00    -0.352 N 
HETATM   24  HN  UNK     0      -1.193  -7.320  16.940  1.00  0.00     0.166 HD
BRANCH  23  25
HETATM   25  C   UNK     0       0.484  -7.056  15.493  0.00  0.00    -0.006 A 
HETATM   26  C   UNK     0       1.566  -5.960  15.508  0.00  0.00     0.057 A 
HETATM   27  C   UNK     0       2.247  -5.531  14.195  0.00  0.00     0.048 A 
HETATM   28  C   UNK     0       1.845  -6.197  12.865  0.00  0.00    -0.010 A 
HETATM   29  C   UNK     0       2.332  -5.989  11.420  0.00  0.00     0.030 A 
HETATM   30  C   UNK     0       0.763  -7.293  12.850  0.00  0.00     0.039 A 
HETATM   31  C   UNK     0       3.411  -4.989  10.963  0.00  0.00     0.070 C 
HETATM   32  N   UNK     0       1.551  -6.956  10.511  0.00  0.00    -0.304 N 
HETATM   33  N   UNK     0       0.581  -7.762  11.395  0.00  0.00    -0.304 N 
HETATM   34  HN  UNK     0       1.657  -7.047   9.501  1.00  0.00     0.186 HD
HETATM   35  HN  UNK     0      -0.068  -8.480  11.073  1.00  0.00     0.186 HD
HETATM   36  C   UNK     0       0.082  -7.722  14.163  0.00  0.00     0.111 A 
ENDBRANCH  23  25
ENDBRANCH  20  23
ENDBRANCH   1  15
TORSDOF 5
ENDMDL
MODEL 5
REMARK VINA RESULT:      -9.0      3.311      6.456
REMARK  5 active torsions:
REMARK  status: ('A' for Active; 'I' for Inactive)
REMARK    1  A    between atoms: N_1  and  C_5 
REMARK    2  A    between atoms: N_1  and  C_6 
REMARK    3  A    between atoms: N_3  and  C_9 
REMARK    4  A    between atoms: N_3  and  C_22 
REMARK    5  A    between atoms: O_17  and  C_18 
ROOT
HETATM    1  N   UNK     0      -0.521  -5.025  24.432  0.00  0.00    -0.199 N 
HETATM    2  HN  UNK     0       0.251  -4.599  24.945  1.00  0.00     0.183 HD
ENDROOT
BRANCH   1   3
HETATM    3  C   UNK     0      -1.484  -4.143  23.617  0.00  0.00     0.016 A 
HETATM    4  C   UNK     0      -0.982  -3.416  22.356  0.00  0.00     0.120 A 
HETATM    5  C   UNK     0      -1.945  -2.534  21.540  0.00  0.00     0.087 A 
HETATM    6  C   UNK     0      -3.411  -2.378  21.986  0.00  0.00     0.128 A 
HETATM    7  O   UNK     0      -1.443  -1.807  20.279  0.00  0.00    -0.350 OA
HETATM    8  C   UNK     0      -3.913  -3.104  23.248  0.00  0.00     0.086 A 
HETATM    9  O   UNK     0      -4.374  -1.495  21.170  0.00  0.00    -0.344 OA
HETATM   10  C   UNK     0      -2.950  -3.987  24.063  0.00  0.00     0.120 A 
HETATM   11  C   UNK     0      -3.872  -0.769  19.909  0.00  0.00     0.202 A 
HETATM   12  C   UNK     0      -2.406  -0.925  19.463  0.00  0.00     0.202 A 
BRANCH   8  13
HETATM   13  O   UNK     0      -5.379  -2.948  23.694  0.00  0.00    -0.357 OA
HETATM   14  C   UNK     0      -6.483  -3.777  23.013  0.00  0.00     0.209 C 
ENDBRANCH   8  13
ENDBRANCH   1   3
BRANCH   1  15
HETATM   15  C   UNK     0      -0.724  -6.551  24.475  0.00  0.00     0.679 A 
HETATM   16  N   UNK     0      -1.659  -7.175  25.527  0.00  0.00    -0.226 N 
HETATM   17  C   UNK     0      -1.862  -8.701  25.569  0.00  0.00     0.145 A 
HETATM   18  HN  UNK     0      -2.144  -6.578  26.196  1.00  0.00     0.177 HD
HETATM   19  C   UNK     0      -1.129  -9.603  24.558  0.00  0.00     0.097 A 
HETATM   20  C   UNK     0      -0.194  -8.980  23.506  0.00  0.00     0.099 A 
HETATM   21  N   UNK     0       0.009  -7.453  23.464  0.00  0.00    -0.181 N 
HETATM   22  HN  UNK     0       0.628  -7.040  22.767  1.00  0.00     0.185 HD
BRANCH  20  23
HETATM   23  N   UNK     0       0.539  -9.882  22.496  0.00  0.00    -0.352 N 
HETATM   24  HN  UNK     0       0.927 -10.775  22.797  1.00  0.00     0.166 HD
BRANCH  23  25
HETATM   25  C   UNK     0       0.686  -9.435  21.030  0.00  0.00    -0.006 A 
HETATM   26  C   UNK     0      -0.255  -8.361  20.454  0.00  0.00     0.057 A 
HETATM   27  C   UNK     0      -0.108  -7.914  18.987  0.00  0.00     0.048 A 
HETATM   28  C   UNK     0       0.981  -8.542  18.097  0.00  0.00    -0.010 A 
HETATM   29  C   UNK     0       1.369  -8.309  16.625  0.00  0.00     0.030 A 
HETATM   30  C   UNK     0       1.923  -9.615  18.673  0.00  0.00     0.039 A 
HETATM   31  C   UNK     0       0.694  -7.319  15.657  0.00  0.00     0.070 C 
HETATM   32  N   UNK     0       2.550  -9.239  16.292  0.00  0.00    -0.304 N 
HETATM   33  N   UNK     0       2.892 -10.046  17.558  0.00  0.00    -0.304 N 
HETATM   34  HN  UNK     0       3.023  -9.308  15.391  1.00  0.00     0.186 HD
HETATM   35  HN  UNK     0       3.631 -10.744  17.642  1.00  0.00     0.186 HD
HETATM   36  C   UNK     0       1.775 -10.062  20.140  0.00  0.00     0.111 A 
ENDBRANCH  23  25
ENDBRANCH  20  23
ENDBRANCH   1  15
TORSDOF 5
ENDMDL
MODEL 6
REMARK VINA RESULT:      -8.9      3.329      6.312
REMARK  5 active torsions:
REMARK  status: ('A' for Active; 'I' for Inactive)
REMARK    1  A    between atoms: N_1  and  C_5 
REMARK    2  A    between atoms: N_1  and  C_6 
REMARK    3  A    between atoms: N_3  and  C_9 
REMARK    4  A    between atoms: N_3  and  C_22 
REMARK    5  A    between atoms: O_17  and  C_18 
ROOT
HETATM    1  N   UNK     0      -2.783  -4.948  23.690  0.00  0.00    -0.199 N 
HETATM    2  HN  UNK     0      -3.777  -5.154  23.594  1.00  0.00     0.183 HD
ENDROOT
BRANCH   1   3
HETATM    3  C   UNK     0      -2.254  -3.537  23.372  0.00  0.00     0.016 A 
HETATM    4  C   UNK     0      -1.961  -2.548  24.514  0.00  0.00     0.120 A 
HETATM    5  C   UNK     0      -1.432  -1.137  24.196  0.00  0.00     0.087 A 
HETATM    6  C   UNK     0      -1.197  -0.715  22.734  0.00  0.00     0.128 A 
HETATM    7  O   UNK     0      -1.139  -0.148  25.340  0.00  0.00    -0.350 OA
HETATM    8  C   UNK     0      -1.490  -1.704  21.590  0.00  0.00     0.086 A 
HETATM    9  O   UNK     0      -0.668   0.696  22.415  0.00  0.00    -0.344 OA
HETATM   10  C   UNK     0      -2.019  -3.115  21.909  0.00  0.00     0.120 A 
HETATM   11  C   UNK     0      -0.375   1.684  23.558  0.00  0.00     0.202 A 
HETATM   12  C   UNK     0      -0.610   1.262  25.021  0.00  0.00     0.202 A 
BRANCH   8  13
HETATM   13  O   UNK     0      -1.255  -1.282  20.128  0.00  0.00    -0.357 OA
HETATM   14  C   UNK     0      -2.454  -0.966  19.216  0.00  0.00     0.209 C 
ENDBRANCH   8  13
ENDBRANCH   1   3
BRANCH   1  15
HETATM   15  C   UNK     0      -1.810  -6.048  24.154  0.00  0.00     0.679 A 
HETATM   16  N   UNK     0      -1.237  -6.017  25.583  0.00  0.00    -0.226 N 
HETATM   17  C   UNK     0      -0.265  -7.117  26.047  0.00  0.00     0.145 A 
HETATM   18  HN  UNK     0      -1.502  -5.268  26.223  1.00  0.00     0.177 HD
HETATM   19  C   UNK     0       0.135  -8.248  25.081  0.00  0.00     0.097 A 
HETATM   20  C   UNK     0      -0.437  -8.279  23.652  0.00  0.00     0.099 A 
HETATM   21  N   UNK     0      -1.410  -7.179  23.188  0.00  0.00    -0.181 N 
HETATM   22  HN  UNK     0      -1.789  -7.200  22.242  1.00  0.00     0.185 HD
BRANCH  20  23
HETATM   23  N   UNK     0      -0.037  -9.411  22.687  0.00  0.00    -0.352 N 
HETATM   24  HN  UNK     0       0.034 -10.370  23.026  1.00  0.00     0.166 HD
BRANCH  23  25
HETATM   25  C   UNK     0       0.256  -9.094  21.209  0.00  0.00    -0.006 A 
HETATM   26  C   UNK     0      -0.573  -8.027  20.471  0.00  0.00     0.057 A 
HETATM   27  C   UNK     0      -0.280  -7.710  18.992  0.00  0.00     0.048 A 
HETATM   28  C   UNK     0       0.843  -8.460  18.252  0.00  0.00    -0.010 A 
HETATM   29  C   UNK     0       1.364  -8.369  16.806  0.00  0.00     0.030 A 
HETATM   30  C   UNK     0       1.673  -9.528  18.990  0.00  0.00     0.039 A 
HETATM   31  C   UNK     0       0.828  -7.431  15.708  0.00  0.00     0.070 C 
HETATM   32  N   UNK     0       2.516  -9.379  16.651  0.00  0.00    -0.304 N 
HETATM   33  N   UNK     0       2.706 -10.095  18.001  0.00  0.00    -0.304 N 
HETATM   34  HN  UNK     0       3.057  -9.545  15.802  1.00  0.00     0.186 HD
HETATM   35  HN  UNK     0       3.396 -10.819  18.204  1.00  0.00     0.186 HD
HETATM   36  C   UNK     0       1.379  -9.844  20.469  0.00  0.00     0.111 A 
ENDBRANCH  23  25
ENDBRANCH  20  23
ENDBRANCH   1  15
TORSDOF 5
ENDMDL
MODEL 7
REMARK VINA RESULT:      -8.7      3.348      6.155
REMARK  5 active torsions:
REMARK  status: ('A' for Active; 'I' for Inactive)
REMARK    1  A    between atoms: N_1  and  C_5 
REMARK    2  A    between atoms: N_1  and  C_6 
REMARK    3  A    between atoms: N_3  and  C_9 
REMARK    4  A    between atoms: N_3  and  C_22 
REMARK    5  A    between atoms: O_17  and  C_18 
ROOT
HETATM    1  N   UNK     0      -0.812  -5.116  24.535  0.00  0.00    -0.199 N 
HETATM    2  HN  UNK     0      -0.087  -4.640  25.070  1.00  0.00     0.183 HD
ENDROOT
BRANCH   1   3
HETATM    3  C   UNK     0      -1.841  -4.296  23.734  0.00  0.00     0.016 A 
HETATM    4  C   UNK     0      -3.251  -4.061  24.305  0.00  0.00     0.120 A 
HETATM    5  C   UNK     0      -4.280  -3.241  23.505  0.00  0.00     0.087 A 
HETATM    6  C   UNK     0      -3.899  -2.657  22.133  0.00  0.00     0.128 A 
HETATM    7  O   UNK     0      -5.690  -3.006  24.077  0.00  0.00    -0.350 OA
HETATM    8  C   UNK     0      -2.488  -2.892  21.560  0.00  0.00     0.086 A 
HETATM    9  O   UNK     0      -4.927  -1.837  21.332  0.00  0.00    -0.344 OA
HETATM   10  C   UNK     0      -1.459  -3.712  22.361  0.00  0.00     0.120 A 
HETATM   11  C   UNK     0      -6.337  -1.601  21.903  0.00  0.00     0.202 A 
HETATM   12  C   UNK     0      -6.719  -2.186  23.276  0.00  0.00     0.202 A 
BRANCH   8  13
HETATM   13  O   UNK     0      -2.106  -2.307  20.187  0.00  0.00    -0.357 OA
HETATM   14  C   UNK     0      -1.663  -0.838  20.073  0.00  0.00     0.209 C 
ENDBRANCH   8  13
ENDBRANCH   1   3
BRANCH   1  15
HETATM   15  C   UNK     0      -0.879  -6.655  24.526  0.00  0.00     0.679 A 
HETATM   16  N   UNK     0      -1.816  -7.391  25.502  0.00  0.00    -0.226 N 
HETATM   17  C   UNK     0      -1.882  -8.929  25.493  0.00  0.00     0.145 A 
HETATM   18  HN  UNK     0      -2.392  -6.859  26.155  1.00  0.00     0.177 HD
HETATM   19  C   UNK     0      -1.012  -9.732  24.508  0.00  0.00     0.097 A 
HETATM   20  C   UNK     0      -0.076  -8.996  23.532  0.00  0.00     0.099 A 
HETATM   21  N   UNK     0      -0.009  -7.458  23.541  0.00  0.00    -0.181 N 
HETATM   22  HN  UNK     0       0.611  -6.971  22.894  1.00  0.00     0.185 HD
BRANCH  20  23
HETATM   23  N   UNK     0       0.794  -9.799  22.547  0.00  0.00    -0.352 N 
HETATM   24  HN  UNK     0       1.321 -10.608  22.875  1.00  0.00     0.166 HD
BRANCH  23  25
HETATM   25  C   UNK     0       0.867  -9.381  21.067  0.00  0.00    -0.006 A 
HETATM   26  C   UNK     0      -0.139  -8.360  20.505  0.00  0.00     0.057 A 
HETATM   27  C   UNK     0      -0.065  -7.942  19.024  0.00  0.00     0.048 A 
HETATM   28  C   UNK     0       1.015  -8.545  18.106  0.00  0.00    -0.010 A 
HETATM   29  C   UNK     0       1.337  -8.332  16.616  0.00  0.00     0.030 A 
HETATM   30  C   UNK     0       2.021  -9.567  18.669  0.00  0.00     0.039 A 
HETATM   31  C   UNK     0       0.586  -7.393  15.653  0.00  0.00     0.070 C 
HETATM   32  N   UNK     0       2.542  -9.221  16.258  0.00  0.00    -0.304 N 
HETATM   33  N   UNK     0       2.964  -9.984  17.526  0.00  0.00    -0.304 N 
HETATM   34  HN  UNK     0       2.983  -9.292  15.341  1.00  0.00     0.186 HD
HETATM   35  HN  UNK     0       3.734 -10.650  17.598  1.00  0.00     0.186 HD
HETATM   36  C   UNK     0       1.947  -9.985  20.149  0.00  0.00     0.111 A 
ENDBRANCH  23  25
ENDBRANCH  20  23
ENDBRANCH   1  15
TORSDOF 5
ENDMDL
MODEL 8
REMARK VINA RESULT:      -8.2      3.562      6.665
REMARK  5 active torsions:
REMARK  status: ('A' for Active; 'I' for Inactive)
REMARK    1  A    between atoms: N_1  and  C_5 
REMARK    2  A    between atoms: N_1  and  C_6 
REMARK    3  A    between atoms: N_3  and  C_9 
REMARK    4  A    between atoms: N_3  and  C_22 
REMARK    5  A    between atoms: O_17  and  C_18 
ROOT
HETATM    1  N   UNK     0      -1.520  -4.159  24.555  0.00  0.00    -0.199 N 
HETATM    2  HN  UNK     0      -0.977  -3.870  25.368  1.00  0.00     0.183 HD
ENDROOT
BRANCH   1   3
HETATM    3  C   UNK     0      -2.123  -3.098  23.614  0.00  0.00     0.016 A 
HETATM    4  C   UNK     0      -3.644  -3.045  23.388  0.00  0.00     0.120 A 
HETATM    5  C   UNK     0      -4.247  -1.984  22.448  0.00  0.00     0.087 A 
HETATM    6  C   UNK     0      -3.327  -0.977  21.734  0.00  0.00     0.128 A 
HETATM    7  O   UNK     0      -5.770  -1.931  22.222  0.00  0.00    -0.350 OA
HETATM    8  C   UNK     0      -1.805  -1.030  21.960  0.00  0.00     0.086 A 
HETATM    9  O   UNK     0      -3.930   0.083  20.793  0.00  0.00    -0.344 OA
HETATM   10  C   UNK     0      -1.202  -2.091  22.900  0.00  0.00     0.120 A 
HETATM   11  C   UNK     0      -5.452   0.136  20.567  0.00  0.00     0.202 A 
HETATM   12  C   UNK     0      -6.372  -0.871  21.282  0.00  0.00     0.202 A 
BRANCH   8  13
HETATM   13  O   UNK     0      -0.884  -0.023  21.245  0.00  0.00    -0.357 OA
HETATM   14  C   UNK     0      -0.643   1.368  21.859  0.00  0.00     0.209 C 
ENDBRANCH   8  13
ENDBRANCH   1   3
BRANCH   1  15
HETATM   15  C   UNK     0      -1.738  -5.656  24.267  0.00  0.00     0.679 A 
HETATM   16  N   UNK     0      -3.066  -6.330  24.659  0.00  0.00    -0.226 N 
HETATM   17  C   UNK     0      -3.284  -7.827  24.371  0.00  0.00     0.145 A 
HETATM   18  HN  UNK     0      -3.802  -5.785  25.109  1.00  0.00     0.177 HD
HETATM   19  C   UNK     0      -2.174  -8.650  23.691  0.00  0.00     0.097 A 
HETATM   20  C   UNK     0      -0.846  -7.976  23.299  0.00  0.00     0.099 A 
HETATM   21  N   UNK     0      -0.628  -6.479  23.587  0.00  0.00    -0.181 N 
HETATM   22  HN  UNK     0       0.251  -6.033  23.328  1.00  0.00     0.185 HD
BRANCH  20  23
HETATM   23  N   UNK     0       0.264  -8.799  22.620  0.00  0.00    -0.352 N 
HETATM   24  HN  UNK     0       0.855  -9.416  23.176  1.00  0.00     0.166 HD
BRANCH  23  25
HETATM   25  C   UNK     0       0.483  -8.690  21.100  0.00  0.00    -0.006 A 
HETATM   26  C   UNK     0      -0.474  -7.840  20.243  0.00  0.00     0.057 A 
HETATM   27  C   UNK     0      -0.255  -7.731  18.722  0.00  0.00     0.048 A 
HETATM   28  C   UNK     0       0.921  -8.472  18.058  0.00  0.00    -0.010 A 
HETATM   29  C   UNK     0       1.391  -8.556  16.595  0.00  0.00     0.030 A 
HETATM   30  C   UNK     0       1.878  -9.321  18.915  0.00  0.00     0.039 A 
HETATM   31  C   UNK     0       0.729  -7.860  15.390  0.00  0.00     0.070 C 
HETATM   32  N   UNK     0       2.638  -9.458  16.547  0.00  0.00    -0.304 N 
HETATM   33  N   UNK     0       2.939  -9.931  17.981  0.00  0.00    -0.304 N 
HETATM   34  HN  UNK     0       3.171  -9.699  15.711  1.00  0.00     0.186 HD
HETATM   35  HN  UNK     0       3.707 -10.540  18.263  1.00  0.00     0.186 HD
HETATM   36  C   UNK     0       1.659  -9.430  20.436  0.00  0.00     0.111 A 
ENDBRANCH  23  25
ENDBRANCH  20  23
ENDBRANCH   1  15
TORSDOF 5
ENDMDL
MODEL 9
REMARK VINA RESULT:      -8.1      7.894     14.453
REMARK  5 active torsions:
REMARK  status: ('A' for Active; 'I' for Inactive)
REMARK    1  A    between atoms: N_1  and  C_5 
REMARK    2  A    between atoms: N_1  and  C_6 
REMARK    3  A    between atoms: N_3  and  C_9 
REMARK    4  A    between atoms: N_3  and  C_22 
REMARK    5  A    between atoms: O_17  and  C_18 
ROOT
HETATM    1  N   UNK     0       5.764  -1.259   6.998  0.00  0.00    -0.199 N 
HETATM    2  HN  UNK     0       6.656  -1.173   6.512  1.00  0.00     0.183 HD
ENDROOT
BRANCH   1   3
HETATM    3  C   UNK     0       4.561  -0.405   6.556  0.00  0.00     0.016 A 
HETATM    4  C   UNK     0       4.791   0.952   5.867  0.00  0.00     0.120 A 
HETATM    5  C   UNK     0       3.588   1.805   5.425  0.00  0.00     0.087 A 
HETATM    6  C   UNK     0       2.154   1.301   5.672  0.00  0.00     0.128 A 
HETATM    7  O   UNK     0       3.819   3.163   4.736  0.00  0.00    -0.350 OA
HETATM    8  C   UNK     0       1.923  -0.057   6.361  0.00  0.00     0.086 A 
HETATM    9  O   UNK     0       0.951   2.155   5.229  0.00  0.00    -0.344 OA
HETATM   10  C   UNK     0       3.127  -0.910   6.803  0.00  0.00     0.120 A 
HETATM   11  C   UNK     0       1.181   3.512   4.541  0.00  0.00     0.202 A 
HETATM   12  C   UNK     0       2.615   4.017   4.294  0.00  0.00     0.202 A 
BRANCH   8  13
HETATM   13  O   UNK     0       0.489  -0.562   6.608  0.00  0.00    -0.357 OA
HETATM   14  C   UNK     0      -0.267  -0.140   7.881  0.00  0.00     0.209 C 
ENDBRANCH   8  13
ENDBRANCH   1   3
BRANCH   1  15
HETATM   15  C   UNK     0       5.620  -2.242   8.175  0.00  0.00     0.679 A 
HETATM   16  N   UNK     0       6.651  -2.232   9.319  0.00  0.00    -0.226 N 
HETATM   17  C   UNK     0       6.507  -3.215  10.495  0.00  0.00     0.145 A 
HETATM   18  HN  UNK     0       7.430  -1.573   9.297  1.00  0.00     0.177 HD
HETATM   19  C   UNK     0       5.331  -4.208  10.528  0.00  0.00     0.097 A 
HETATM   20  C   UNK     0       4.300  -4.219   9.385  0.00  0.00     0.099 A 
HETATM   21  N   UNK     0       4.444  -3.236   8.208  0.00  0.00    -0.181 N 
HETATM   22  HN  UNK     0       3.761  -3.243   7.451  1.00  0.00     0.185 HD
BRANCH  20  23
HETATM   23  N   UNK     0       3.124  -5.213   9.417  0.00  0.00    -0.352 N 
HETATM   24  HN  UNK     0       2.706  -5.538   8.546  1.00  0.00     0.166 HD
BRANCH  23  25
HETATM   25  C   UNK     0       2.578  -5.717  10.766  0.00  0.00    -0.006 A 
HETATM   26  C   UNK     0       3.128  -5.139  12.083  0.00  0.00     0.057 A 
HETATM   27  C   UNK     0       2.582  -5.643  13.433  0.00  0.00     0.048 A 
HETATM   28  C   UNK     0       1.487  -6.725  13.465  0.00  0.00    -0.010 A 
HETATM   29  C   UNK     0       0.756  -7.417  14.630  0.00  0.00     0.030 A 
HETATM   30  C   UNK     0       0.937  -7.303  12.147  0.00  0.00     0.039 A 
HETATM   31  C   UNK     0       0.986  -7.150  16.129  0.00  0.00     0.070 C 
HETATM   32  N   UNK     0      -0.245  -8.422  14.033  0.00  0.00    -0.304 N 
HETATM   33  N   UNK     0      -0.133  -8.352  12.498  0.00  0.00    -0.304 N 
HETATM   34  HN  UNK     0      -0.873  -9.029  14.561  1.00  0.00     0.186 HD
HETATM   35  HN  UNK     0      -0.673  -8.904  11.832  1.00  0.00     0.186 HD
HETATM   36  C   UNK     0       1.483  -6.799  10.798  0.00  0.00     0.111 A 
ENDBRANCH  23  25
ENDBRANCH  20  23
ENDBRANCH   1  15
TORSDOF 5
ENDMDL
MODEL 10
REMARK VINA RESULT:      -8.1      9.109     14.640
REMARK  5 active torsions:
REMARK  status: ('A' for Active; 'I' for Inactive)
REMARK    1  A    between atoms: N_1  and  C_5 
REMARK    2  A    between atoms: N_1  and  C_6 
REMARK    3  A    between atoms: N_3  and  C_9 
REMARK    4  A    between atoms: N_3  and  C_22 
REMARK    5  A    between atoms: O_17  and  C_18 
ROOT
HETATM    1  N   UNK     0       0.961  -1.191   8.326  0.00  0.00    -0.199 N 
HETATM    2  HN  UNK     0       0.267  -1.472   9.018  1.00  0.00     0.183 HD
ENDROOT
BRANCH   1   3
HETATM    3  C   UNK     0       0.634  -0.077   7.316  0.00  0.00     0.016 A 
HETATM    4  C   UNK     0      -0.796   0.488   7.228  0.00  0.00     0.120 A 
HETATM    5  C   UNK     0      -1.123   1.603   6.218  0.00  0.00     0.087 A 
HETATM    6  C   UNK     0      -0.021   2.153   5.294  0.00  0.00     0.128 A 
HETATM    7  O   UNK     0      -2.554   2.168   6.131  0.00  0.00    -0.350 OA
HETATM    8  C   UNK     0       1.409   1.588   5.381  0.00  0.00     0.086 A 
HETATM    9  O   UNK     0      -0.349   3.268   4.284  0.00  0.00    -0.344 OA
HETATM   10  C   UNK     0       1.737   0.474   6.392  0.00  0.00     0.120 A 
HETATM   11  C   UNK     0      -1.778   3.833   4.196  0.00  0.00     0.202 A 
HETATM   12  C   UNK     0      -2.881   3.282   5.120  0.00  0.00     0.202 A 
BRANCH   8  13
HETATM   13  O   UNK     0       2.512   2.139   4.458  0.00  0.00    -0.357 OA
HETATM   14  C   UNK     0       3.968   2.205   4.952  0.00  0.00     0.209 C 
ENDBRANCH   8  13
ENDBRANCH   1   3
BRANCH   1  15
HETATM   15  C   UNK     0       2.337  -1.882   8.292  0.00  0.00     0.679 A 
HETATM   16  N   UNK     0       3.321  -1.583   7.145  0.00  0.00    -0.226 N 
HETATM   17  C   UNK     0       4.696  -2.274   7.111  0.00  0.00     0.145 A 
HETATM   18  HN  UNK     0       3.061  -0.928   6.408  1.00  0.00     0.177 HD
HETATM   19  C   UNK     0       5.089  -3.263   8.224  0.00  0.00     0.097 A 
HETATM   20  C   UNK     0       4.107  -3.562   9.371  0.00  0.00     0.099 A 
HETATM   21  N   UNK     0       2.730  -2.871   9.405  0.00  0.00    -0.181 N 
HETATM   22  HN  UNK     0       2.080  -3.069  10.165  1.00  0.00     0.185 HD
BRANCH  20  23
HETATM   23  N   UNK     0       4.500  -4.551  10.483  0.00  0.00    -0.352 N 
HETATM   24  HN  UNK     0       5.481  -4.678  10.730  1.00  0.00     0.166 HD
BRANCH  23  25
HETATM   25  C   UNK     0       3.411  -5.349  11.224  0.00  0.00    -0.006 A 
HETATM   26  C   UNK     0       2.666  -6.487  10.504  0.00  0.00     0.057 A 
HETATM   27  C   UNK     0       1.577  -7.285  11.245  0.00  0.00     0.048 A 
HETATM   28  C   UNK     0       1.234  -6.944  12.708  0.00  0.00    -0.010 A 
HETATM   29  C   UNK     0       0.217  -7.547  13.694  0.00  0.00     0.030 A 
HETATM   30  C   UNK     0       1.979  -5.806  13.428  0.00  0.00     0.039 A 
HETATM   31  C   UNK     0      -0.748  -8.712  13.402  0.00  0.00     0.070 C 
HETATM   32  N   UNK     0       0.334  -6.781  15.025  0.00  0.00    -0.304 N 
HETATM   33  N   UNK     0       1.424  -5.705  14.860  0.00  0.00    -0.304 N 
HETATM   34  HN  UNK     0      -0.213  -6.956  15.867  1.00  0.00     0.186 HD
HETATM   35  HN  UNK     0       1.724  -5.042  15.575  1.00  0.00     0.186 HD
HETATM   36  C   UNK     0       3.068  -5.008  12.687  0.00  0.00     0.111 A 
ENDBRANCH  23  25
ENDBRANCH  20  23
ENDBRANCH   1  15
TORSDOF 5
ENDMDL
MODEL 11
REMARK VINA RESULT:      -8.0      3.749      6.705
REMARK  5 active torsions:
REMARK  status: ('A' for Active; 'I' for Inactive)
REMARK    1  A    between atoms: N_1  and  C_5 
REMARK    2  A    between atoms: N_1  and  C_6 
REMARK    3  A    between atoms: N_3  and  C_9 
REMARK    4  A    between atoms: N_3  and  C_22 
REMARK    5  A    between atoms: O_17  and  C_18 
ROOT
HETATM    1  N   UNK     0      -0.545  -3.364  22.161  0.00  0.00    -0.199 N 
HETATM    2  HN  UNK     0       0.299  -3.148  21.630  1.00  0.00     0.183 HD
ENDROOT
BRANCH   1   3
HETATM    3  C   UNK     0      -1.678  -2.326  22.260  0.00  0.00     0.016 A 
HETATM    4  C   UNK     0      -1.424  -0.972  22.946  0.00  0.00     0.120 A 
HETATM    5  C   UNK     0      -2.558   0.066  23.045  0.00  0.00     0.087 A 
HETATM    6  C   UNK     0      -3.946  -0.251  22.459  0.00  0.00     0.128 A 
HETATM    7  O   UNK     0      -2.304   1.421  23.731  0.00  0.00    -0.350 OA
HETATM    8  C   UNK     0      -4.200  -1.606  21.773  0.00  0.00     0.086 A 
HETATM    9  O   UNK     0      -5.079   0.786  22.558  0.00  0.00    -0.344 OA
HETATM   10  C   UNK     0      -3.066  -2.644  21.673  0.00  0.00     0.120 A 
HETATM   11  C   UNK     0      -4.825   2.141  23.244  0.00  0.00     0.202 A 
HETATM   12  C   UNK     0      -3.437   2.459  23.831  0.00  0.00     0.202 A 
BRANCH   8  13
HETATM   13  O   UNK     0      -5.588  -1.924  21.186  0.00  0.00    -0.357 OA
HETATM   14  C   UNK     0      -6.768  -2.236  22.124  0.00  0.00     0.209 C 
ENDBRANCH   8  13
ENDBRANCH   1   3
BRANCH   1  15
HETATM   15  C   UNK     0      -0.685  -4.727  22.864  0.00  0.00     0.679 A 
HETATM   16  N   UNK     0      -1.130  -4.792  24.337  0.00  0.00    -0.226 N 
HETATM   17  C   UNK     0      -1.270  -6.155  25.039  0.00  0.00     0.145 A 
HETATM   18  HN  UNK     0      -1.331  -3.932  24.847  1.00  0.00     0.177 HD
HETATM   19  C   UNK     0      -0.965  -7.453  24.269  0.00  0.00     0.097 A 
HETATM   20  C   UNK     0      -0.521  -7.389  22.796  0.00  0.00     0.099 A 
HETATM   21  N   UNK     0      -0.380  -6.025  22.093  0.00  0.00    -0.181 N 
HETATM   22  HN  UNK     0      -0.086  -5.983  21.118  1.00  0.00     0.185 HD
BRANCH  20  23
HETATM   23  N   UNK     0      -0.216  -8.687  22.026  0.00  0.00    -0.352 N 
HETATM   24  HN  UNK     0      -0.302  -9.589  22.493  1.00  0.00     0.166 HD
BRANCH  23  25
HETATM   25  C   UNK     0       0.218  -8.623  20.550  0.00  0.00    -0.006 A 
HETATM   26  C   UNK     0      -0.596  -7.789  19.543  0.00  0.00     0.057 A 
HETATM   27  C   UNK     0      -0.162  -7.726  18.067  0.00  0.00     0.048 A 
HETATM   28  C   UNK     0       1.087  -8.496  17.598  0.00  0.00    -0.010 A 
HETATM   29  C   UNK     0       1.759  -8.625  16.219  0.00  0.00     0.030 A 
HETATM   30  C   UNK     0       1.901  -9.329  18.605  0.00  0.00     0.039 A 
HETATM   31  C   UNK     0       1.285  -7.958  14.914  0.00  0.00     0.070 C 
HETATM   32  N   UNK     0       2.989  -9.539  16.373  0.00  0.00    -0.304 N 
HETATM   33  N   UNK     0       3.076  -9.974  17.848  0.00  0.00    -0.304 N 
HETATM   34  HN  UNK     0       3.632  -9.809  15.629  1.00  0.00     0.186 HD
HETATM   35  HN  UNK     0       3.788 -10.583  18.253  1.00  0.00     0.186 HD
HETATM   36  C   UNK     0       1.467  -9.393  20.081  0.00  0.00     0.111 A 
ENDBRANCH  23  25
ENDBRANCH  20  23
ENDBRANCH   1  15
TORSDOF 5
ENDMDL
MODEL 12
REMARK VINA RESULT:      -7.9      4.043      7.168
REMARK  5 active torsions:
REMARK  status: ('A' for Active; 'I' for Inactive)
REMARK    1  A    between atoms: N_1  and  C_5 
REMARK    2  A    between atoms: N_1  and  C_6 
REMARK    3  A    between atoms: N_3  and  C_9 
REMARK    4  A    between atoms: N_3  and  C_22 
REMARK    5  A    between atoms: O_17  and  C_18 
ROOT
HETATM    1  N   UNK     0      -0.699  -2.861  21.782  0.00  0.00    -0.199 N 
HETATM    2  HN  UNK     0       0.067  -2.813  21.111  1.00  0.00     0.183 HD
ENDROOT
BRANCH   1   3
HETATM    3  C   UNK     0      -1.582  -1.624  22.031  0.00  0.00     0.016 A 
HETATM    4  C   UNK     0      -2.818  -1.369  21.149  0.00  0.00     0.120 A 
HETATM    5  C   UNK     0      -3.700  -0.132  21.398  0.00  0.00     0.087 A 
HETATM    6  C   UNK     0      -3.347   0.851  22.530  0.00  0.00     0.128 A 
HETATM    7  O   UNK     0      -4.937   0.122  20.516  0.00  0.00    -0.350 OA
HETATM    8  C   UNK     0      -2.111   0.597  23.412  0.00  0.00     0.086 A 
HETATM    9  O   UNK     0      -4.230   2.088  22.779  0.00  0.00    -0.344 OA
HETATM   10  C   UNK     0      -1.228  -0.641  23.163  0.00  0.00     0.120 A 
HETATM   11  C   UNK     0      -5.466   2.342  21.897  0.00  0.00     0.202 A 
HETATM   12  C   UNK     0      -5.820   1.359  20.765  0.00  0.00     0.202 A 
BRANCH   8  13
HETATM   13  O   UNK     0      -1.757   1.580  24.544  0.00  0.00    -0.357 OA
HETATM   14  C   UNK     0      -1.193   2.972  24.206  0.00  0.00     0.209 C 
ENDBRANCH   8  13
ENDBRANCH   1   3
BRANCH   1  15
HETATM   15  C   UNK     0      -0.975  -4.170  22.545  0.00  0.00     0.679 A 
HETATM   16  N   UNK     0      -1.737  -4.135  23.884  0.00  0.00    -0.226 N 
HETATM   17  C   UNK     0      -2.012  -5.444  24.647  0.00  0.00     0.145 A 
HETATM   18  HN  UNK     0      -2.059  -3.245  24.264  1.00  0.00     0.177 HD
HETATM   19  C   UNK     0      -1.526  -6.787  24.072  0.00  0.00     0.097 A 
HETATM   20  C   UNK     0      -0.764  -6.822  22.734  0.00  0.00     0.099 A 
HETATM   21  N   UNK     0      -0.489  -5.513  21.971  0.00  0.00    -0.181 N 
HETATM   22  HN  UNK     0       0.016  -5.536  21.085  1.00  0.00     0.185 HD
BRANCH  20  23
HETATM   23  N   UNK     0      -0.278  -8.166  22.160  0.00  0.00    -0.352 N 
HETATM   24  HN  UNK     0      -0.219  -8.986  22.762  1.00  0.00     0.166 HD
BRANCH  23  25
HETATM   25  C   UNK     0       0.119  -8.270  20.676  0.00  0.00    -0.006 A 
HETATM   26  C   UNK     0      -0.753  -7.601  19.597  0.00  0.00     0.057 A 
HETATM   27  C   UNK     0      -0.356  -7.706  18.112  0.00  0.00     0.048 A 
HETATM   28  C   UNK     0       0.913  -8.480  17.707  0.00  0.00    -0.010 A 
HETATM   29  C   UNK     0       1.558  -8.755  16.337  0.00  0.00     0.030 A 
HETATM   30  C   UNK     0       1.785  -9.148  18.786  0.00  0.00     0.039 A 
HETATM   31  C   UNK     0       1.026  -8.275  14.973  0.00  0.00     0.070 C 
HETATM   32  N   UNK     0       2.828  -9.594  16.569  0.00  0.00    -0.304 N 
HETATM   33  N   UNK     0       2.968  -9.837  18.083  0.00  0.00    -0.304 N 
HETATM   34  HN  UNK     0       3.465  -9.930  15.846  1.00  0.00     0.186 HD
HETATM   35  HN  UNK     0       3.714 -10.362  18.540  1.00  0.00     0.186 HD
HETATM   36  C   UNK     0       1.387  -9.044  20.271  0.00  0.00     0.111 A 
ENDBRANCH  23  25
ENDBRANCH  20  23
ENDBRANCH   1  15
TORSDOF 5
ENDMDL
MODEL 13
REMARK VINA RESULT:      -7.8      2.691      5.174
REMARK  5 active torsions:
REMARK  status: ('A' for Active; 'I' for Inactive)
REMARK    1  A    between atoms: N_1  and  C_5 
REMARK    2  A    between atoms: N_1  and  C_6 
REMARK    3  A    between atoms: N_3  and  C_9 
REMARK    4  A    between atoms: N_3  and  C_22 
REMARK    5  A    between atoms: O_17  and  C_18 
ROOT
HETATM    1  N   UNK     0       0.137  -4.960  22.059  0.00  0.00    -0.199 N 
HETATM    2  HN  UNK     0       0.996  -4.462  21.826  1.00  0.00     0.183 HD
ENDROOT
BRANCH   1   3
HETATM    3  C   UNK     0      -1.173  -4.178  22.267  0.00  0.00     0.016 A 
HETATM    4  C   UNK     0      -1.805  -3.407  21.093  0.00  0.00     0.120 A 
HETATM    5  C   UNK     0      -3.115  -2.625  21.302  0.00  0.00     0.087 A 
HETATM    6  C   UNK     0      -3.793  -2.614  22.684  0.00  0.00     0.128 A 
HETATM    7  O   UNK     0      -3.747  -1.855  20.127  0.00  0.00    -0.350 OA
HETATM    8  C   UNK     0      -3.162  -3.384  23.858  0.00  0.00     0.086 A 
HETATM    9  O   UNK     0      -5.104  -1.832  22.892  0.00  0.00    -0.344 OA
HETATM   10  C   UNK     0      -1.851  -4.166  23.650  0.00  0.00     0.120 A 
HETATM   11  C   UNK     0      -5.736  -1.061  21.718  0.00  0.00     0.202 A 
HETATM   12  C   UNK     0      -5.057  -1.073  20.336  0.00  0.00     0.202 A 
BRANCH   8  13
HETATM   13  O   UNK     0      -3.840  -3.373  25.241  0.00  0.00    -0.357 OA
HETATM   14  C   UNK     0      -3.064  -3.848  26.483  0.00  0.00     0.209 C 
ENDBRANCH   8  13
ENDBRANCH   1   3
BRANCH   1  15
HETATM   15  C   UNK     0       0.150  -6.493  22.202  0.00  0.00     0.679 A 
HETATM   16  N   UNK     0      -0.282  -7.146  23.529  0.00  0.00    -0.226 N 
HETATM   17  C   UNK     0      -0.269  -8.679  23.672  0.00  0.00     0.145 A 
HETATM   18  HN  UNK     0      -0.576  -6.563  24.312  1.00  0.00     0.177 HD
HETATM   19  C   UNK     0       0.175  -9.559  22.489  0.00  0.00     0.097 A 
HETATM   20  C   UNK     0       0.606  -8.907  21.163  0.00  0.00     0.099 A 
HETATM   21  N   UNK     0       0.594  -7.374  21.019  0.00  0.00    -0.181 N 
HETATM   22  HN  UNK     0       0.879  -6.942  20.141  1.00  0.00     0.185 HD
BRANCH  20  23
HETATM   23  N   UNK     0       1.050  -9.788  19.980  0.00  0.00    -0.352 N 
HETATM   24  HN  UNK     0       1.175 -10.791  20.110  1.00  0.00     0.166 HD
BRANCH  23  25
HETATM   25  C   UNK     0       1.305  -9.153  18.601  0.00  0.00    -0.006 A 
HETATM   26  C   UNK     0       2.555  -9.545  17.792  0.00  0.00     0.057 A 
HETATM   27  C   UNK     0       2.810  -8.909  16.412  0.00  0.00     0.048 A 
HETATM   28  C   UNK     0       1.814  -7.882  15.841  0.00  0.00    -0.010 A 
HETATM   29  C   UNK     0       1.793  -7.091  14.520  0.00  0.00     0.030 A 
HETATM   30  C   UNK     0       0.563  -7.491  16.650  0.00  0.00     0.039 A 
HETATM   31  C   UNK     0       2.851  -7.167  13.403  0.00  0.00     0.070 C 
HETATM   32  N   UNK     0       0.530  -6.211  14.513  0.00  0.00    -0.304 N 
HETATM   33  N   UNK     0      -0.230  -6.457  15.830  0.00  0.00    -0.304 N 
HETATM   34  HN  UNK     0       0.247  -5.575  13.768  1.00  0.00     0.186 HD
HETATM   35  HN  UNK     0      -1.105  -6.015  16.109  1.00  0.00     0.186 HD
HETATM   36  C   UNK     0       0.309  -8.126  18.030  0.00  0.00     0.111 A 
ENDBRANCH  23  25
ENDBRANCH  20  23
ENDBRANCH   1  15
TORSDOF 5
ENDMDL
MODEL 14
REMARK VINA RESULT:      -7.7      3.963      7.570
REMARK  5 active torsions:
REMARK  status: ('A' for Active; 'I' for Inactive)
REMARK    1  A    between atoms: N_1  and  C_5 
REMARK    2  A    between atoms: N_1  and  C_6 
REMARK    3  A    between atoms: N_3  and  C_9 
REMARK    4  A    between atoms: N_3  and  C_22 
REMARK    5  A    between atoms: O_17  and  C_18 
ROOT
HETATM    1  N   UNK     0      -1.222  -3.495  25.990  0.00  0.00    -0.199 N 
HETATM    2  HN  UNK     0      -0.932  -2.794  26.672  1.00  0.00     0.183 HD
ENDROOT
BRANCH   1   3
HETATM    3  C   UNK     0      -2.252  -3.134  24.904  0.00  0.00     0.016 A 
HETATM    4  C   UNK     0      -1.819  -2.317  23.674  0.00  0.00     0.120 A 
HETATM    5  C   UNK     0      -2.850  -1.956  22.587  0.00  0.00     0.087 A 
HETATM    6  C   UNK     0      -4.313  -2.413  22.732  0.00  0.00     0.128 A 
HETATM    7  O   UNK     0      -2.417  -1.138  21.356  0.00  0.00    -0.350 OA
HETATM    8  C   UNK     0      -4.746  -3.231  23.963  0.00  0.00     0.086 A 
HETATM    9  O   UNK     0      -5.343  -2.052  21.646  0.00  0.00    -0.344 OA
HETATM   10  C   UNK     0      -3.716  -3.591  25.049  0.00  0.00     0.120 A 
HETATM   11  C   UNK     0      -4.911  -1.235  20.415  0.00  0.00     0.202 A 
HETATM   12  C   UNK     0      -3.447  -0.778  20.270  0.00  0.00     0.202 A 
BRANCH   8  13
HETATM   13  O   UNK     0      -6.210  -3.688  24.108  0.00  0.00    -0.357 OA
HETATM   14  C   UNK     0      -6.709  -4.925  23.340  0.00  0.00     0.209 C 
ENDBRANCH   8  13
ENDBRANCH   1   3
BRANCH   1  15
HETATM   15  C   UNK     0      -0.627  -4.915  26.047  0.00  0.00     0.679 A 
HETATM   16  N   UNK     0       0.439  -5.262  27.102  0.00  0.00    -0.226 N 
HETATM   17  C   UNK     0       1.033  -6.681  27.159  0.00  0.00     0.145 A 
HETATM   18  HN  UNK     0       0.753  -4.551  27.764  1.00  0.00     0.177 HD
HETATM   19  C   UNK     0       0.560  -7.754  26.160  0.00  0.00     0.097 A 
HETATM   20  C   UNK     0      -0.506  -7.408  25.105  0.00  0.00     0.099 A 
HETATM   21  N   UNK     0      -1.100  -5.988  25.048  0.00  0.00    -0.181 N 
HETATM   22  HN  UNK     0      -1.807  -5.758  24.350  1.00  0.00     0.185 HD
BRANCH  20  23
HETATM   23  N   UNK     0      -0.979  -8.480  24.107  0.00  0.00    -0.352 N 
HETATM   24  HN  UNK     0      -1.629  -9.206  24.408  1.00  0.00     0.166 HD
BRANCH  23  25
HETATM   25  C   UNK     0      -0.471  -8.457  22.654  0.00  0.00    -0.006 A 
HETATM   26  C   UNK     0      -0.912  -7.330  21.701  0.00  0.00     0.057 A 
HETATM   27  C   UNK     0      -0.403  -7.307  20.248  0.00  0.00     0.048 A 
HETATM   28  C   UNK     0       0.546  -8.411  19.746  0.00  0.00    -0.010 A 
HETATM   29  C   UNK     0       1.210  -8.656  18.379  0.00  0.00     0.030 A 
HETATM   30  C   UNK     0       0.987  -9.539  20.698  0.00  0.00     0.039 A 
HETATM   31  C   UNK     0       1.051  -7.777  17.124  0.00  0.00     0.070 C 
HETATM   32  N   UNK     0       2.061  -9.935  18.486  0.00  0.00    -0.304 N 
HETATM   33  N   UNK     0       1.923 -10.481  19.920  0.00  0.00    -0.304 N 
HETATM   34  HN  UNK     0       2.618 -10.349  17.739  1.00  0.00     0.186 HD
HETATM   35  HN  UNK     0       2.373 -11.318  20.289  1.00  0.00     0.186 HD
HETATM   36  C   UNK     0       0.478  -9.561  22.152  0.00  0.00     0.111 A 
ENDBRANCH  23  25
ENDBRANCH  20  23
ENDBRANCH   1  15
TORSDOF 5
ENDMDL
MODEL 15
REMARK VINA RESULT:      -7.6      4.013      7.848
REMARK  5 active torsions:
REMARK  status: ('A' for Active; 'I' for Inactive)
REMARK    1  A    between atoms: N_1  and  C_5 
REMARK    2  A    between atoms: N_1  and  C_6 
REMARK    3  A    between atoms: N_3  and  C_9 
REMARK    4  A    between atoms: N_3  and  C_22 
REMARK    5  A    between atoms: O_17  and  C_18 
ROOT
HETATM    1  N   UNK     0      -3.989  -4.097  24.905  0.00  0.00    -0.199 N 
HETATM    2  HN  UNK     0      -4.885  -4.448  25.240  1.00  0.00     0.183 HD
ENDROOT
BRANCH   1   3
HETATM    3  C   UNK     0      -3.930  -2.797  24.082  0.00  0.00     0.016 A 
HETATM    4  C   UNK     0      -5.146  -1.854  24.043  0.00  0.00     0.120 A 
HETATM    5  C   UNK     0      -5.088  -0.554  23.220  0.00  0.00     0.087 A 
HETATM    6  C   UNK     0      -3.812  -0.196  22.436  0.00  0.00     0.128 A 
HETATM    7  O   UNK     0      -6.305   0.388  23.182  0.00  0.00    -0.350 OA
HETATM    8  C   UNK     0      -2.594  -1.139  22.475  0.00  0.00     0.086 A 
HETATM    9  O   UNK     0      -3.753   1.104  21.613  0.00  0.00    -0.344 OA
HETATM   10  C   UNK     0      -2.653  -2.439  23.298  0.00  0.00     0.120 A 
HETATM   11  C   UNK     0      -4.970   2.046  21.574  0.00  0.00     0.202 A 
HETATM   12  C   UNK     0      -6.246   1.689  22.358  0.00  0.00     0.202 A 
BRANCH   8  13
HETATM   13  O   UNK     0      -1.318  -0.781  21.691  0.00  0.00    -0.357 OA
HETATM   14  C   UNK     0      -1.192  -1.170  20.206  0.00  0.00     0.209 C 
ENDBRANCH   8  13
ENDBRANCH   1   3
BRANCH   1  15
HETATM   15  C   UNK     0      -2.693  -4.867  25.223  0.00  0.00     0.679 A 
HETATM   16  N   UNK     0      -1.680  -4.289  26.228  0.00  0.00    -0.226 N 
HETATM   17  C   UNK     0      -0.385  -5.058  26.545  0.00  0.00     0.145 A 
HETATM   18  HN  UNK     0      -1.867  -3.396  26.685  1.00  0.00     0.177 HD
HETATM   19  C   UNK     0      -0.102  -6.407  25.857  0.00  0.00     0.097 A 
HETATM   20  C   UNK     0      -1.114  -6.985  24.851  0.00  0.00     0.099 A 
HETATM   21  N   UNK     0      -2.410  -6.215  24.534  0.00  0.00    -0.181 N 
HETATM   22  HN  UNK     0      -3.081  -6.598  23.868  1.00  0.00     0.185 HD
BRANCH  20  23
HETATM   23  N   UNK     0      -0.832  -8.333  24.163  0.00  0.00    -0.352 N 
HETATM   24  HN  UNK     0      -0.943  -9.204  24.681  1.00  0.00     0.166 HD
BRANCH  23  25
HETATM   25  C   UNK     0      -0.380  -8.366  22.691  0.00  0.00    -0.006 A 
HETATM   26  C   UNK     0      -0.859  -7.277  21.714  0.00  0.00     0.057 A 
HETATM   27  C   UNK     0      -0.407  -7.311  20.242  0.00  0.00     0.048 A 
HETATM   28  C   UNK     0       0.524  -8.434  19.747  0.00  0.00    -0.010 A 
HETATM   29  C   UNK     0       1.135  -8.732  18.366  0.00  0.00     0.030 A 
HETATM   30  C   UNK     0       1.003  -9.523  20.725  0.00  0.00     0.039 A 
HETATM   31  C   UNK     0       0.926  -7.902  17.085  0.00  0.00     0.070 C 
HETATM   32  N   UNK     0       1.992 -10.005  18.490  0.00  0.00    -0.304 N 
HETATM   33  N   UNK     0       1.911 -10.494  19.948  0.00  0.00    -0.304 N 
HETATM   34  HN  UNK     0       2.521 -10.448  17.738  1.00  0.00     0.186 HD
HETATM   35  HN  UNK     0       2.376 -11.317  20.332  1.00  0.00     0.186 HD
HETATM   36  C   UNK     0       0.551  -9.489  22.197  0.00  0.00     0.111 A 
ENDBRANCH  23  25
ENDBRANCH  20  23
ENDBRANCH   1  15
TORSDOF 5
ENDMDL
MODEL 16
REMARK VINA RESULT:      -7.5      3.941      7.266
REMARK  5 active torsions:
REMARK  status: ('A' for Active; 'I' for Inactive)
REMARK    1  A    between atoms: N_1  and  C_5 
REMARK    2  A    between atoms: N_1  and  C_6 
REMARK    3  A    between atoms: N_3  and  C_9 
REMARK    4  A    between atoms: N_3  and  C_22 
REMARK    5  A    between atoms: O_17  and  C_18 
ROOT
HETATM    1  N   UNK     0      -1.147  -3.811  26.181  0.00  0.00    -0.199 N 
HETATM    2  HN  UNK     0      -0.807  -3.089  26.817  1.00  0.00     0.183 HD
ENDROOT
BRANCH   1   3
HETATM    3  C   UNK     0      -2.258  -3.481  25.166  0.00  0.00     0.016 A 
HETATM    4  C   UNK     0      -3.731  -3.748  25.524  0.00  0.00     0.120 A 
HETATM    5  C   UNK     0      -4.842  -3.419  24.509  0.00  0.00     0.087 A 
HETATM    6  C   UNK     0      -4.479  -2.823  23.137  0.00  0.00     0.128 A 
HETATM    7  O   UNK     0      -6.316  -3.686  24.867  0.00  0.00    -0.350 OA
HETATM    8  C   UNK     0      -3.005  -2.555  22.779  0.00  0.00     0.086 A 
HETATM    9  O   UNK     0      -5.589  -2.493  22.122  0.00  0.00    -0.344 OA
HETATM   10  C   UNK     0      -1.894  -2.885  23.794  0.00  0.00     0.120 A 
HETATM   11  C   UNK     0      -7.063  -2.760  22.479  0.00  0.00     0.202 A 
HETATM   12  C   UNK     0      -7.426  -3.357  23.852  0.00  0.00     0.202 A 
BRANCH   8  13
HETATM   13  O   UNK     0      -2.641  -1.959  21.406  0.00  0.00    -0.357 OA
HETATM   14  C   UNK     0      -1.183  -1.993  20.914  0.00  0.00     0.209 C 
ENDBRANCH   8  13
ENDBRANCH   1   3
BRANCH   1  15
HETATM   15  C   UNK     0      -0.551  -5.229  26.236  0.00  0.00     0.679 A 
HETATM   16  N   UNK     0       0.486  -5.588  27.318  0.00  0.00    -0.226 N 
HETATM   17  C   UNK     0       1.082  -7.006  27.372  0.00  0.00     0.145 A 
HETATM   18  HN  UNK     0       0.777  -4.886  27.998  1.00  0.00     0.177 HD
HETATM   19  C   UNK     0       0.642  -8.067  26.346  0.00  0.00     0.097 A 
HETATM   20  C   UNK     0      -0.393  -7.709  25.265  0.00  0.00     0.099 A 
HETATM   21  N   UNK     0      -0.990  -6.290  25.210  0.00  0.00    -0.181 N 
HETATM   22  HN  UNK     0      -1.676  -6.053  24.494  1.00  0.00     0.185 HD
BRANCH  20  23
HETATM   23  N   UNK     0      -0.833  -8.769  24.238  0.00  0.00    -0.352 N 
HETATM   24  HN  UNK     0      -1.433  -9.542  24.528  1.00  0.00     0.166 HD
BRANCH  23  25
HETATM   25  C   UNK     0      -0.368  -8.664  22.774  0.00  0.00    -0.006 A 
HETATM   26  C   UNK     0      -0.866  -7.506  21.889  0.00  0.00     0.057 A 
HETATM   27  C   UNK     0      -0.400  -7.400  20.425  0.00  0.00     0.048 A 
HETATM   28  C   UNK     0       0.564  -8.453  19.846  0.00  0.00    -0.010 A 
HETATM   29  C   UNK     0       1.195  -8.615  18.451  0.00  0.00     0.030 A 
HETATM   30  C   UNK     0       1.062  -9.611  20.731  0.00  0.00     0.039 A 
HETATM   31  C   UNK     0       0.976  -7.682  17.244  0.00  0.00     0.070 C 
HETATM   32  N   UNK     0       2.083  -9.873  18.473  0.00  0.00    -0.304 N 
HETATM   33  N   UNK     0       2.000 -10.488  19.883  0.00  0.00    -0.304 N 
HETATM   34  HN  UNK     0       2.629 -10.235  17.692  1.00  0.00     0.186 HD
HETATM   35  HN  UNK     0       2.483 -11.330  20.199  1.00  0.00     0.186 HD
HETATM   36  C   UNK     0       0.596  -9.716  22.195  0.00  0.00     0.111 A 
ENDBRANCH  23  25
ENDBRANCH  20  23
ENDBRANCH   1  15
TORSDOF 5
ENDMDL
MODEL 17
REMARK VINA RESULT:      -7.5      4.973      7.178
REMARK  5 active torsions:
REMARK  status: ('A' for Active; 'I' for Inactive)
REMARK    1  A    between atoms: N_1  and  C_5 
REMARK    2  A    between atoms: N_1  and  C_6 
REMARK    3  A    between atoms: N_3  and  C_9 
REMARK    4  A    between atoms: N_3  and  C_22 
REMARK    5  A    between atoms: O_17  and  C_18 
ROOT
HETATM    1  N   UNK     0      -3.729  -6.430  25.393  0.00  0.00    -0.199 N 
HETATM    2  HN  UNK     0      -3.664  -6.745  26.361  1.00  0.00     0.183 HD
ENDROOT
BRANCH   1   3
HETATM    3  C   UNK     0      -5.094  -6.030  24.803  0.00  0.00     0.016 A 
HETATM    4  C   UNK     0      -5.258  -4.675  24.092  0.00  0.00     0.120 A 
HETATM    5  C   UNK     0      -6.624  -4.275  23.502  0.00  0.00     0.087 A 
HETATM    6  C   UNK     0      -7.825  -5.230  23.624  0.00  0.00     0.128 A 
HETATM    7  O   UNK     0      -6.788  -2.919  22.790  0.00  0.00    -0.350 OA
HETATM    8  C   UNK     0      -7.661  -6.586  24.336  0.00  0.00     0.086 A 
HETATM    9  O   UNK     0      -9.190  -4.830  23.035  0.00  0.00    -0.344 OA
HETATM   10  C   UNK     0      -6.295  -6.986  24.926  0.00  0.00     0.120 A 
HETATM   11  C   UNK     0      -9.354  -3.475  22.323  0.00  0.00     0.202 A 
HETATM   12  C   UNK     0      -8.153  -2.519  22.201  0.00  0.00     0.202 A 
BRANCH   8  13
HETATM   13  O   UNK     0      -8.862  -7.542  24.459  0.00  0.00    -0.357 OA
HETATM   14  C   UNK     0      -9.670  -7.599  25.768  0.00  0.00     0.209 C 
ENDBRANCH   8  13
ENDBRANCH   1   3
BRANCH   1  15
HETATM   15  C   UNK     0      -2.461  -6.354  24.521  0.00  0.00     0.679 A 
HETATM   16  N   UNK     0      -1.682  -5.030  24.407  0.00  0.00    -0.226 N 
HETATM   17  C   UNK     0      -0.416  -4.955  23.536  0.00  0.00     0.145 A 
HETATM   18  HN  UNK     0      -2.006  -4.203  24.910  1.00  0.00     0.177 HD
HETATM   19  C   UNK     0       0.073  -6.203  22.777  0.00  0.00     0.097 A 
HETATM   20  C   UNK     0      -0.706  -7.526  22.890  0.00  0.00     0.099 A 
HETATM   21  N   UNK     0      -1.973  -7.602  23.763  0.00  0.00    -0.181 N 
HETATM   22  HN  UNK     0      -2.488  -8.479  23.838  1.00  0.00     0.185 HD
BRANCH  20  23
HETATM   23  N   UNK     0      -0.217  -8.774  22.132  0.00  0.00    -0.352 N 
HETATM   24  HN  UNK     0      -0.166  -9.674  22.609  1.00  0.00     0.166 HD
BRANCH  23  25
HETATM   25  C   UNK     0       0.194  -8.664  20.653  0.00  0.00    -0.006 A 
HETATM   26  C   UNK     0      -0.628  -7.791  19.687  0.00  0.00     0.057 A 
HETATM   27  C   UNK     0      -0.216  -7.681  18.207  0.00  0.00     0.048 A 
HETATM   28  C   UNK     0       1.018  -8.445  17.692  0.00  0.00    -0.010 A 
HETATM   29  C   UNK     0       1.667  -8.534  16.299  0.00  0.00     0.030 A 
HETATM   30  C   UNK     0       1.840  -9.319  18.658  0.00  0.00     0.039 A 
HETATM   31  C   UNK     0       1.178  -7.820  15.025  0.00  0.00     0.070 C 
HETATM   32  N   UNK     0       2.891  -9.463  16.404  0.00  0.00    -0.304 N 
HETATM   33  N   UNK     0       2.998  -9.948  17.861  0.00  0.00    -0.304 N 
HETATM   34  HN  UNK     0       3.520  -9.713  15.641  1.00  0.00     0.186 HD
HETATM   35  HN  UNK     0       3.710 -10.576  18.234  1.00  0.00     0.186 HD
HETATM   36  C   UNK     0       1.428  -9.429  20.138  0.00  0.00     0.111 A 
ENDBRANCH  23  25
ENDBRANCH  20  23
ENDBRANCH   1  15
TORSDOF 5
ENDMDL
MODEL 18
REMARK VINA RESULT:      -7.4      2.272      3.463
REMARK  5 active torsions:
REMARK  status: ('A' for Active; 'I' for Inactive)
REMARK    1  A    between atoms: N_1  and  C_5 
REMARK    2  A    between atoms: N_1  and  C_6 
REMARK    3  A    between atoms: N_3  and  C_9 
REMARK    4  A    between atoms: N_3  and  C_22 
REMARK    5  A    between atoms: O_17  and  C_18 
ROOT
HETATM    1  N   UNK     0      -0.788  -8.277  21.915  0.00  0.00    -0.199 N 
HETATM    2  HN  UNK     0      -1.656  -7.764  21.764  1.00  0.00     0.183 HD
ENDROOT
BRANCH   1   3
HETATM    3  C   UNK     0      -0.372  -8.682  23.341  0.00  0.00     0.016 A 
HETATM    4  C   UNK     0      -0.397 -10.163  23.759  0.00  0.00     0.120 A 
HETATM    5  C   UNK     0       0.019 -10.568  25.186  0.00  0.00     0.087 A 
HETATM    6  C   UNK     0       0.461  -9.492  26.194  0.00  0.00     0.128 A 
HETATM    7  O   UNK     0      -0.006 -12.051  25.603  0.00  0.00    -0.350 OA
HETATM    8  C   UNK     0       0.486  -8.010  25.776  0.00  0.00     0.086 A 
HETATM    9  O   UNK     0       0.877  -9.897  27.620  0.00  0.00    -0.344 OA
HETATM   10  C   UNK     0       0.070  -7.605  24.350  0.00  0.00     0.120 A 
HETATM   11  C   UNK     0       0.852 -11.379  28.038  0.00  0.00     0.202 A 
HETATM   12  C   UNK     0       0.410 -12.456  27.030  0.00  0.00     0.202 A 
BRANCH   8  13
HETATM   13  O   UNK     0       0.927  -6.933  26.785  0.00  0.00    -0.357 OA
HETATM   14  C   UNK     0       1.250  -5.509  26.298  0.00  0.00     0.209 C 
ENDBRANCH   8  13
ENDBRANCH   1   3
BRANCH   1  15
HETATM   15  C   UNK     0       0.107  -8.647  20.718  0.00  0.00     0.679 A 
HETATM   16  N   UNK     0       0.580 -10.100  20.529  0.00  0.00    -0.226 N 
HETATM   17  C   UNK     0       1.475 -10.469  19.332  0.00  0.00     0.145 A 
HETATM   18  HN  UNK     0       0.301 -10.818  21.197  1.00  0.00     0.177 HD
HETATM   19  C   UNK     0       1.897  -9.385  18.323  0.00  0.00     0.097 A 
HETATM   20  C   UNK     0       1.425  -7.932  18.511  0.00  0.00     0.099 A 
HETATM   21  N   UNK     0       0.529  -7.563  19.708  0.00  0.00    -0.181 N 
HETATM   22  HN  UNK     0       0.216  -6.600  19.833  1.00  0.00     0.185 HD
BRANCH  20  23
HETATM   23  N   UNK     0       1.847  -6.848  17.502  0.00  0.00    -0.352 N 
HETATM   24  HN  UNK     0       2.323  -6.007  17.826  1.00  0.00     0.166 HD
BRANCH  23  25
HETATM   25  C   UNK     0       1.550  -7.034  16.003  0.00  0.00    -0.006 A 
HETATM   26  C   UNK     0       0.435  -7.996  15.552  0.00  0.00     0.057 A 
HETATM   27  C   UNK     0       0.138  -8.182  14.052  0.00  0.00     0.048 A 
HETATM   28  C   UNK     0       0.957  -7.406  13.003  0.00  0.00    -0.010 A 
HETATM   29  C   UNK     0       0.899  -7.380  11.464  0.00  0.00     0.030 A 
HETATM   30  C   UNK     0       2.072  -6.445  13.454  0.00  0.00     0.039 A 
HETATM   31  C   UNK     0      -0.069  -8.189  10.581  0.00  0.00     0.070 C 
HETATM   32  N   UNK     0       1.978  -6.402  10.965  0.00  0.00    -0.304 N 
HETATM   33  N   UNK     0       2.703  -5.824  12.194  0.00  0.00    -0.304 N 
HETATM   34  HN  UNK     0       2.178  -6.176   9.990  1.00  0.00     0.186 HD
HETATM   35  HN  UNK     0       3.468  -5.149  12.177  1.00  0.00     0.186 HD
HETATM   36  C   UNK     0       2.369  -6.259  14.953  0.00  0.00     0.111 A 
ENDBRANCH  23  25
ENDBRANCH  20  23
ENDBRANCH   1  15
TORSDOF 5
ENDMDL
MODEL 19
REMARK VINA RESULT:      -7.2      4.333      8.244
REMARK  5 active torsions:
REMARK  status: ('A' for Active; 'I' for Inactive)
REMARK    1  A    between atoms: N_1  and  C_5 
REMARK    2  A    between atoms: N_1  and  C_6 
REMARK    3  A    between atoms: N_3  and  C_9 
REMARK    4  A    between atoms: N_3  and  C_22 
REMARK    5  A    between atoms: O_17  and  C_18 
ROOT
HETATM    1  N   UNK     0      -4.966  -4.164  23.529  0.00  0.00    -0.199 N 
HETATM    2  HN  UNK     0      -5.847  -4.414  23.081  1.00  0.00     0.183 HD
ENDROOT
BRANCH   1   3
HETATM    3  C   UNK     0      -4.279  -2.829  23.186  0.00  0.00     0.016 A 
HETATM    4  C   UNK     0      -2.770  -2.794  22.885  0.00  0.00     0.120 A 
HETATM    5  C   UNK     0      -2.083  -1.459  22.542  0.00  0.00     0.087 A 
HETATM    6  C   UNK     0      -2.906  -0.159  22.498  0.00  0.00     0.128 A 
HETATM    7  O   UNK     0      -0.573  -1.425  22.241  0.00  0.00    -0.350 OA
HETATM    8  C   UNK     0      -4.417  -0.193  22.798  0.00  0.00     0.086 A 
HETATM    9  O   UNK     0      -2.220   1.176  22.155  0.00  0.00    -0.344 OA
HETATM   10  C   UNK     0      -5.103  -1.528  23.142  0.00  0.00     0.120 A 
HETATM   11  C   UNK     0      -0.710   1.211  21.854  0.00  0.00     0.202 A 
HETATM   12  C   UNK     0       0.113  -0.090  21.898  0.00  0.00     0.202 A 
BRANCH   8  13
HETATM   13  O   UNK     0      -5.240   1.108  22.755  0.00  0.00    -0.357 OA
HETATM   14  C   UNK     0      -5.484   1.820  21.412  0.00  0.00     0.209 C 
ENDBRANCH   8  13
ENDBRANCH   1   3
BRANCH   1  15
HETATM   15  C   UNK     0      -4.322  -5.120  24.550  0.00  0.00     0.679 A 
HETATM   16  N   UNK     0      -5.035  -5.420  25.882  0.00  0.00    -0.226 N 
HETATM   17  C   UNK     0      -4.391  -6.377  26.902  0.00  0.00     0.145 A 
HETATM   18  HN  UNK     0      -5.935  -4.986  26.087  1.00  0.00     0.177 HD
HETATM   19  C   UNK     0      -3.033  -7.033  26.591  0.00  0.00     0.097 A 
HETATM   20  C   UNK     0      -2.320  -6.734  25.260  0.00  0.00     0.099 A 
HETATM   21  N   UNK     0      -2.964  -5.777  24.239  0.00  0.00    -0.181 N 
HETATM   22  HN  UNK     0      -2.491  -5.579  23.358  1.00  0.00     0.185 HD
BRANCH  20  23
HETATM   23  N   UNK     0      -0.962  -7.390  24.949  0.00  0.00    -0.352 N 
HETATM   24  HN  UNK     0      -0.332  -7.645  25.710  1.00  0.00     0.166 HD
BRANCH  23  25
HETATM   25  C   UNK     0      -0.554  -7.663  23.490  0.00  0.00    -0.006 A 
HETATM   26  C   UNK     0      -0.902  -6.643  22.390  0.00  0.00     0.057 A 
HETATM   27  C   UNK     0      -0.494  -6.917  20.930  0.00  0.00     0.048 A 
HETATM   28  C   UNK     0       0.262  -8.210  20.570  0.00  0.00    -0.010 A 
HETATM   29  C   UNK     0       0.793  -8.754  19.232  0.00  0.00     0.030 A 
HETATM   30  C   UNK     0       0.610  -9.229  21.671  0.00  0.00     0.039 A 
HETATM   31  C   UNK     0       0.669  -8.063  17.860  0.00  0.00     0.070 C 
HETATM   32  N   UNK     0       1.469 -10.110  19.505  0.00  0.00    -0.304 N 
HETATM   33  N   UNK     0       1.356 -10.404  21.012  0.00  0.00    -0.304 N 
HETATM   34  HN  UNK     0       1.914 -10.709  18.809  1.00  0.00     0.186 HD
HETATM   35  HN  UNK     0       1.713 -11.231  21.490  1.00  0.00     0.186 HD
HETATM   36  C   UNK     0       0.202  -8.956  23.130  0.00  0.00     0.111 A 
ENDBRANCH  23  25
ENDBRANCH  20  23
ENDBRANCH   1  15
TORSDOF 5
ENDMDL
MODEL 20
REMARK VINA RESULT:      -7.1      5.857     10.384
REMARK  5 active torsions:
REMARK  status: ('A' for Active; 'I' for Inactive)
REMARK    1  A    between atoms: N_1  and  C_5 
REMARK    2  A    between atoms: N_1  and  C_6 
REMARK    3  A    between atoms: N_3  and  C_9 
REMARK    4  A    between atoms: N_3  and  C_22 
REMARK    5  A    between atoms: O_17  and  C_18 
ROOT
HETATM    1  N   UNK     0      -2.555  -6.465  24.384  0.00  0.00    -0.199 N 
HETATM    2  HN  UNK     0      -3.302  -6.872  24.946  1.00  0.00     0.183 HD
ENDROOT
BRANCH   1   3
HETATM    3  C   UNK     0      -1.584  -7.380  23.614  0.00  0.00     0.016 A 
HETATM    4  C   UNK     0      -1.208  -7.053  22.158  0.00  0.00     0.120 A 
HETATM    5  C   UNK     0      -0.237  -7.968  21.388  0.00  0.00     0.087 A 
HETATM    6  C   UNK     0       0.357  -9.211  22.075  0.00  0.00     0.128 A 
HETATM    7  O   UNK     0       0.139  -7.640  19.931  0.00  0.00    -0.350 OA
HETATM    8  C   UNK     0      -0.020  -9.539  23.532  0.00  0.00     0.086 A 
HETATM    9  O   UNK     0       1.327 -10.126  21.306  0.00  0.00    -0.344 OA
HETATM   10  C   UNK     0      -0.990  -8.624  24.302  0.00  0.00     0.120 A 
HETATM   11  C   UNK     0       1.703  -9.799  19.849  0.00  0.00     0.202 A 
HETATM   12  C   UNK     0       1.109  -8.555  19.162  0.00  0.00     0.202 A 
BRANCH   8  13
HETATM   13  O   UNK     0       0.574 -10.783  24.220  0.00  0.00    -0.357 OA
HETATM   14  C   UNK     0      -0.196 -11.474  25.359  0.00  0.00     0.209 C 
ENDBRANCH   8  13
ENDBRANCH   1   3
BRANCH   1  15
HETATM   15  C   UNK     0      -2.396  -4.935  24.304  0.00  0.00     0.679 A 
HETATM   16  N   UNK     0      -1.708  -4.171  25.451  0.00  0.00    -0.226 N 
HETATM   17  C   UNK     0      -1.550  -2.642  25.371  0.00  0.00     0.145 A 
HETATM   18  HN  UNK     0      -1.357  -4.679  26.263  1.00  0.00     0.177 HD
HETATM   19  C   UNK     0      -2.080  -1.876  24.145  0.00  0.00     0.097 A 
HETATM   20  C   UNK     0      -2.768  -2.639  22.999  0.00  0.00     0.099 A 
HETATM   21  N   UNK     0      -2.927  -4.169  23.078  0.00  0.00    -0.181 N 
HETATM   22  HN  UNK     0      -3.382  -4.674  22.319  1.00  0.00     0.185 HD
BRANCH  20  23
HETATM   23  N   UNK     0      -3.298  -1.873  21.772  0.00  0.00    -0.352 N 
HETATM   24  HN  UNK     0      -2.893  -2.040  20.852  1.00  0.00     0.166 HD
BRANCH  23  25
HETATM   25  C   UNK     0      -4.441  -0.854  21.936  0.00  0.00    -0.006 A 
HETATM   26  C   UNK     0      -5.774  -1.287  22.574  0.00  0.00     0.057 A 
HETATM   27  C   UNK     0      -6.917  -0.267  22.737  0.00  0.00     0.048 A 
HETATM   28  C   UNK     0      -6.726   1.186  22.263  0.00  0.00    -0.010 A 
HETATM   29  C   UNK     0      -7.661   2.408  22.289  0.00  0.00     0.030 A 
HETATM   30  C   UNK     0      -5.393   1.619  21.624  0.00  0.00     0.039 A 
HETATM   31  C   UNK     0      -9.099   2.438  22.840  0.00  0.00     0.070 C 
HETATM   32  N   UNK     0      -6.906   3.598  21.667  0.00  0.00    -0.304 N 
HETATM   33  N   UNK     0      -5.504   3.109  21.256  0.00  0.00    -0.304 N 
HETATM   34  HN  UNK     0      -7.270   4.543  21.548  1.00  0.00     0.186 HD
HETATM   35  HN  UNK     0      -4.777   3.674  20.817  1.00  0.00     0.186 HD
HETATM   36  C   UNK     0      -4.251   0.599  21.461  0.00  0.00     0.111 A 
ENDBRANCH  23  25
ENDBRANCH  20  23
ENDBRANCH   1  15
TORSDOF 5
ENDMDL
