REMARK  5 active torsions:
REMARK  status: ('A' for Active; 'I' for Inactive)
REMARK    1  A    between atoms: N_1  and  C_5 
REMARK    2  A    between atoms: N_1  and  C_6 
REMARK    3  A    between atoms: N_3  and  C_9 
REMARK    4  A    between atoms: N_3  and  C_22 
REMARK    5  A    between atoms: O_17  and  C_18 
ROOT
HETATM    1  N   UNK     0       2.725  -0.626   0.000  0.00  0.00    -0.199 N 
HETATM    2  HN  UNK     0       3.608  -0.116   0.000  1.00  0.00     0.183 HD
ENDROOT
BRANCH   1   3
HETATM    3  C   UNK     0       2.725  -2.166   0.000  0.00  0.00     0.016 A 
HETATM    4  C   UNK     0       4.058  -2.936   0.000  0.00  0.00     0.120 A 
HETATM    5  C   UNK     0       4.058  -4.476   0.000  0.00  0.00     0.087 A 
HETATM    6  C   UNK     0       2.725  -5.246   0.000  0.00  0.00     0.128 A 
HETATM    7  O   UNK     0       5.392  -5.246   0.000  0.00  0.00    -0.350 OA
HETATM    8  C   UNK     0       1.391  -4.476   0.000  0.00  0.00     0.086 A 
HETATM    9  O   UNK     0       2.725  -6.786   0.000  0.00  0.00    -0.344 OA
HETATM   10  C   UNK     0       1.391  -2.936   0.000  0.00  0.00     0.120 A 
HETATM   11  C   UNK     0       4.058  -7.556   0.000  0.00  0.00     0.202 A 
HETATM   12  C   UNK     0       5.392  -6.786   0.000  0.00  0.00     0.202 A 
BRANCH   8  13
HETATM   13  O   UNK     0       0.057  -5.246   0.000  0.00  0.00    -0.357 OA
HETATM   14  C   UNK     0      -1.276  -4.476   0.000  0.00  0.00     0.209 C 
ENDBRANCH   8  13
ENDBRANCH   1   3
BRANCH   1  15
HETATM   15  C   UNK     0       1.391   0.144   0.000  0.00  0.00     0.679 A 
HETATM   16  N   UNK     0       0.057  -0.626   0.000  0.00  0.00    -0.226 N 
HETATM   17  C   UNK     0      -1.276   0.144   0.000  0.00  0.00     0.145 A 
HETATM   18  HN  UNK     0       0.057  -1.646   0.000  1.00  0.00     0.177 HD
HETATM   19  C   UNK     0      -1.276   1.684   0.000  0.00  0.00     0.097 A 
HETATM   20  C   UNK     0       0.057   2.454   0.000  0.00  0.00     0.099 A 
HETATM   21  N   UNK     0       1.391   1.684   0.000  0.00  0.00    -0.181 N 
HETATM   22  HN  UNK     0       2.274   2.194   0.000  1.00  0.00     0.185 HD
BRANCH  20  23
HETATM   23  N   UNK     0       0.057   3.994   0.000  0.00  0.00    -0.352 N 
HETATM   24  HN  UNK     0       0.940   4.504   0.000  1.00  0.00     0.166 HD
BRANCH  23  25
HETATM   25  C   UNK     0      -1.276   4.764   0.000  0.00  0.00    -0.006 A 
HETATM   26  C   UNK     0      -1.276   6.304   0.000  0.00  0.00     0.057 A 
HETATM   27  C   UNK     0      -2.610   7.074   0.000  0.00  0.00     0.048 A 
HETATM   28  C   UNK     0      -3.944   6.304   0.000  0.00  0.00    -0.010 A 
HETATM   29  C   UNK     0      -5.408   6.780   0.000  0.00  0.00     0.030 A 
HETATM   30  C   UNK     0      -3.944   4.764   0.000  0.00  0.00     0.039 A 
HETATM   31  C   UNK     0      -5.884   8.245   0.000  0.00  0.00     0.070 C 
HETATM   32  N   UNK     0      -6.313   5.534   0.000  0.00  0.00    -0.304 N 
HETATM   33  N   UNK     0      -5.408   4.288   0.000  0.00  0.00    -0.304 N 
HETATM   34  HN  UNK     0      -7.333   5.534   0.000  1.00  0.00     0.186 HD
HETATM   35  HN  UNK     0      -5.723   3.318   0.000  1.00  0.00     0.186 HD
HETATM   36  C   UNK     0      -2.610   3.994   0.000  0.00  0.00     0.111 A 
ENDBRANCH  23  25
ENDBRANCH  20  23
ENDBRANCH   1  15
TORSDOF 5
