MODEL 1
REMARK VINA RESULT:      -8.6      0.000      0.000
REMARK  11 active torsions:
REMARK  status: ('A' for Active; 'I' for Inactive)
REMARK    1  A    between atoms: O_2  and  C_21 
REMARK    2  A    between atoms: O_4  and  C_28 
REMARK    3  A    between atoms: N_6  and  C_13 
REMARK    4  A    between atoms: N_6  and  C_19 
REMARK    5  A    between atoms: N_6  and  C_20 
REMARK    6  A    between atoms: N_9  and  C_17 
REMARK    7  A    between atoms: N_9  and  C_21 
REMARK    8  A    between atoms: C_13  and  C_17 
REMARK    9  A    between atoms: C_14  and  C_21 
REMARK   10  A    between atoms: C_16  and  C_23 
REMARK   11  A    between atoms: C_22  and  C_23 
ROOT
HETATM    1  F   UNK     0      -1.394  -7.499  22.404  0.00  0.00    -0.215 F 
HETATM    2  N   UNK     0       2.473 -10.067  18.407  0.00  0.00    -0.340 N 
HETATM    3  HN  UNK     0       3.149 -10.830  18.444  1.00  0.00     0.168 HD
HETATM    4  C   UNK     0       1.088  -8.184  17.582  0.00  0.00     0.007 A 
HETATM    5  C   UNK     0       0.732  -8.418  19.052  0.00  0.00    -0.019 A 
HETATM    6  C   UNK     0       1.593  -9.588  19.565  0.00  0.00     0.019 A 
HETATM    7  C   UNK     0       2.161  -9.200  17.184  0.00  0.00     0.147 A 
HETATM    8  C   UNK     0      -0.263  -7.722  19.999  0.00  0.00     0.106 A 
HETATM    9  C   UNK     0       1.458 -10.062  21.024  0.00  0.00     0.064 A 
HETATM   10  C   UNK     0      -0.398  -8.196  21.457  0.00  0.00     0.076 A 
HETATM   11  C   UNK     0       0.462  -9.365  21.970  0.00  0.00     0.072 A 
ENDROOT
BRANCH   4  12
HETATM   12  C   UNK     0       0.473  -7.112  16.662  0.00  0.00     0.101 C 
BRANCH  12  13
HETATM   13  C   UNK     0       0.502  -7.300  15.134  0.00  0.00     0.020 A 
HETATM   14  N   UNK     0      -0.148  -8.455  14.352  0.00  0.00    -0.362 N 
HETATM   15  C   UNK     0       0.135  -8.234  12.854  0.00  0.00     0.020 A 
HETATM   16  HN  UNK     0      -0.673  -9.231  14.754  1.00  0.00     0.165 HD
HETATM   17  C   UNK     0       0.960  -6.941  12.711  0.00  0.00     0.044 A 
HETATM   18  C   UNK     0      -0.326  -9.145  11.701  0.00  0.00     0.069 C 
HETATM   19  C   UNK     0       1.187  -6.364  14.120  0.00  0.00    -0.023 A 
HETATM   20  C   UNK     0       1.962  -5.077  14.457  0.00  0.00     0.051 C 
BRANCH  17  21
HETATM   21  C   UNK     0       1.469  -6.333  11.391  0.00  0.00     0.148 C 
BRANCH  21  22
HETATM   22  O   UNK     0       1.389  -7.148  10.086  0.00  0.00    -0.346 OA
HETATM   23  HO  UNK     0       1.992  -7.868   9.938  1.00  0.00     0.219 HD
ENDBRANCH  21  22
BRANCH  21  24
HETATM   24  N   UNK     0       2.057  -4.910  11.375  0.00  0.00    -0.369 N 
HETATM   25  HN  UNK     0       1.491  -4.120  11.687  1.00  0.00     0.161 HD
BRANCH  24  26
HETATM   26  C   UNK     0       3.500  -4.680  10.889  0.00  0.00     0.141 C 
BRANCH  26  27
HETATM   27  C   UNK     0       3.759  -4.185   9.454  0.00  0.00     0.136 C 
BRANCH  27  28
HETATM   28  N   UNK     0       4.864  -3.145   9.185  0.00  0.00    -0.412 N 
BRANCH  28  29
HETATM   29  C   UNK     0       4.725  -2.161   8.008  0.00  0.00     0.112 C 
HETATM   30  C   UNK     0       3.961  -2.581   6.739  0.00  0.00     0.026 C 
ENDBRANCH  28  29
BRANCH  28  31
HETATM   31  C   UNK     0       6.106  -3.091  10.092  0.00  0.00     0.112 C 
HETATM   32  C   UNK     0       7.387  -3.847   9.689  0.00  0.00     0.026 C 
ENDBRANCH  28  31
ENDBRANCH  27  28
ENDBRANCH  26  27
ENDBRANCH  24  26
ENDBRANCH  21  24
ENDBRANCH  17  21
ENDBRANCH  12  13
ENDBRANCH   4  12
BRANCH   7  33
HETATM   33  O   UNK     0       2.814  -9.329  15.795  0.00  0.00    -0.346 OA
HETATM   34  HO  UNK     0       3.359 -10.049  15.499  1.00  0.00     0.219 HD
ENDBRANCH   7  33
TORSDOF 11
ENDMDL
MODEL 2
REMARK VINA RESULT:      -8.5      5.322     12.532
REMARK  11 active torsions:
REMARK  status: ('A' for Active; 'I' for Inactive)
REMARK    1  A    between atoms: O_2  and  C_21 
REMARK    2  A    between atoms: O_4  and  C_28 
REMARK    3  A    between atoms: N_6  and  C_13 
REMARK    4  A    between atoms: N_6  and  C_19 
REMARK    5  A    between atoms: N_6  and  C_20 
REMARK    6  A    between atoms: N_9  and  C_17 
REMARK    7  A    between atoms: N_9  and  C_21 
REMARK    8  A    between atoms: C_13  and  C_17 
REMARK    9  A    between atoms: C_14  and  C_21 
REMARK   10  A    between atoms: C_16  and  C_23 
REMARK   11  A    between atoms: C_22  and  C_23 
ROOT
HETATM    1  F   UNK     0      -1.145  -0.795   5.916  0.00  0.00    -0.215 F 
HETATM    2  N   UNK     0       3.013   3.664   6.509  0.00  0.00    -0.340 N 
HETATM    3  HN  UNK     0       2.975   4.671   6.668  1.00  0.00     0.168 HD
HETATM    4  C   UNK     0       3.870   1.370   6.127  0.00  0.00     0.007 A 
HETATM    5  C   UNK     0       2.342   1.300   6.156  0.00  0.00    -0.019 A 
HETATM    6  C   UNK     0       1.809   2.726   6.393  0.00  0.00     0.019 A 
HETATM    7  C   UNK     0       4.285   2.827   6.346  0.00  0.00     0.147 A 
HETATM    8  C   UNK     0       1.357   0.127   5.997  0.00  0.00     0.106 A 
HETATM    9  C   UNK     0       0.291   2.977   6.471  0.00  0.00     0.064 A 
HETATM   10  C   UNK     0      -0.160   0.379   6.075  0.00  0.00     0.076 A 
HETATM   11  C   UNK     0      -0.693   1.804   6.312  0.00  0.00     0.072 A 
ENDROOT
BRANCH   4  12
HETATM   12  C   UNK     0       4.826   0.180   5.916  0.00  0.00     0.101 C 
BRANCH  12  13
HETATM   13  C   UNK     0       5.294  -0.655   7.123  0.00  0.00     0.020 A 
HETATM   14  N   UNK     0       6.588  -0.438   7.927  0.00  0.00    -0.362 N 
HETATM   15  C   UNK     0       6.642  -1.503   9.038  0.00  0.00     0.020 A 
HETATM   16  HN  UNK     0       7.286   0.285   7.755  1.00  0.00     0.165 HD
HETATM   17  C   UNK     0       5.381  -2.380   8.920  0.00  0.00     0.044 A 
HETATM   18  C   UNK     0       7.761  -1.664  10.084  0.00  0.00     0.069 C 
HETATM   19  C   UNK     0       4.548  -1.855   7.736  0.00  0.00    -0.023 A 
HETATM   20  C   UNK     0       3.204  -2.430   7.250  0.00  0.00     0.051 C 
BRANCH  17  21
HETATM   21  C   UNK     0       5.018  -3.570   9.825  0.00  0.00     0.148 C 
BRANCH  21  22
HETATM   22  O   UNK     0       6.123  -4.513  10.339  0.00  0.00    -0.346 OA
HETATM   23  HO  UNK     0       6.493  -4.383  11.205  1.00  0.00     0.219 HD
ENDBRANCH  21  22
BRANCH  21  24
HETATM   24  N   UNK     0       3.550  -3.819  10.218  0.00  0.00    -0.369 N 
HETATM   25  HN  UNK     0       2.849  -3.096  10.057  1.00  0.00     0.161 HD
BRANCH  24  26
HETATM   26  C   UNK     0       3.141  -5.161  10.854  0.00  0.00     0.141 C 
BRANCH  26  27
HETATM   27  C   UNK     0       3.059  -5.293  12.386  0.00  0.00     0.136 C 
BRANCH  27  28
HETATM   28  N   UNK     0       2.244  -6.437  13.018  0.00  0.00    -0.412 N 
BRANCH  28  29
HETATM   29  C   UNK     0       1.092  -7.089  12.230  0.00  0.00     0.112 C 
HETATM   30  C   UNK     0      -0.044  -7.809  12.981  0.00  0.00     0.026 C 
ENDBRANCH  28  29
BRANCH  28  31
HETATM   31  C   UNK     0       2.581  -6.929  14.438  0.00  0.00     0.112 C 
HETATM   32  C   UNK     0       1.893  -6.287  15.658  0.00  0.00     0.026 C 
ENDBRANCH  28  31
ENDBRANCH  27  28
ENDBRANCH  26  27
ENDBRANCH  24  26
ENDBRANCH  21  24
ENDBRANCH  17  21
ENDBRANCH  12  13
ENDBRANCH   4  12
BRANCH   7  33
HETATM   33  O   UNK     0       5.729   3.359   6.392  0.00  0.00    -0.346 OA
HETATM   34  HO  UNK     0       6.041   4.083   6.923  1.00  0.00     0.219 HD
ENDBRANCH   7  33
TORSDOF 11
ENDMDL
MODEL 3
REMARK VINA RESULT:      -8.2      6.495     10.866
REMARK  11 active torsions:
REMARK  status: ('A' for Active; 'I' for Inactive)
REMARK    1  A    between atoms: O_2  and  C_21 
REMARK    2  A    between atoms: O_4  and  C_28 
REMARK    3  A    between atoms: N_6  and  C_13 
REMARK    4  A    between atoms: N_6  and  C_19 
REMARK    5  A    between atoms: N_6  and  C_20 
REMARK    6  A    between atoms: N_9  and  C_17 
REMARK    7  A    between atoms: N_9  and  C_21 
REMARK    8  A    between atoms: C_13  and  C_17 
REMARK    9  A    between atoms: C_14  and  C_21 
REMARK   10  A    between atoms: C_16  and  C_23 
REMARK   11  A    between atoms: C_22  and  C_23 
ROOT
HETATM    1  F   UNK     0       0.247  -6.823  15.223  0.00  0.00    -0.215 F 
HETATM    2  N   UNK     0       2.227 -10.122  19.989  0.00  0.00    -0.340 N 
HETATM    3  HN  UNK     0       2.963 -10.813  20.133  1.00  0.00     0.168 HD
HETATM    4  C   UNK     0       0.322  -8.589  20.395  0.00  0.00     0.007 A 
HETATM    5  C   UNK     0       0.724  -8.457  18.925  0.00  0.00    -0.019 A 
HETATM    6  C   UNK     0       1.908  -9.409  18.672  0.00  0.00     0.019 A 
HETATM    7  C   UNK     0       1.248  -9.615  21.052  0.00  0.00     0.147 A 
HETATM    8  C   UNK     0       0.171  -7.595  17.775  0.00  0.00     0.106 A 
HETATM    9  C   UNK     0       2.538  -9.499  17.270  0.00  0.00     0.064 A 
HETATM   10  C   UNK     0       0.801  -7.685  16.373  0.00  0.00     0.076 A 
HETATM   11  C   UNK     0       1.984  -8.637  16.120  0.00  0.00     0.072 A 
ENDROOT
BRANCH   4  12
HETATM   12  C   UNK     0      -0.818  -7.822  21.094  0.00  0.00     0.101 C 
BRANCH  12  13
HETATM   13  C   UNK     0      -0.682  -7.424  22.575  0.00  0.00     0.020 A 
HETATM   14  N   UNK     0      -1.013  -8.315  23.786  0.00  0.00    -0.362 N 
HETATM   15  C   UNK     0      -0.727  -7.506  25.065  0.00  0.00     0.020 A 
HETATM   16  HN  UNK     0      -1.360  -9.274  23.748  1.00  0.00     0.165 HD
HETATM   17  C   UNK     0      -0.220  -6.114  24.644  0.00  0.00     0.044 A 
HETATM   18  C   UNK     0      -0.916  -8.001  26.511  0.00  0.00     0.069 C 
HETATM   19  C   UNK     0      -0.193  -6.063  23.106  0.00  0.00    -0.023 A 
HETATM   20  C   UNK     0       0.248  -4.863  22.247  0.00  0.00     0.051 C 
BRANCH  17  21
HETATM   21  C   UNK     0       0.187  -4.974  25.595  0.00  0.00     0.148 C 
BRANCH  21  22
HETATM   22  O   UNK     0       1.650  -4.842  26.057  0.00  0.00    -0.346 OA
HETATM   23  HO  UNK     0       1.921  -5.218  26.887  1.00  0.00     0.219 HD
ENDBRANCH  21  22
BRANCH  21  24
HETATM   24  N   UNK     0      -0.869  -3.964  26.083  0.00  0.00    -0.369 N 
HETATM   25  HN  UNK     0      -0.823  -3.597  27.034  1.00  0.00     0.161 HD
BRANCH  24  26
HETATM   26  C   UNK     0      -1.995  -3.509  25.136  0.00  0.00     0.141 C 
BRANCH  26  27
HETATM   27  C   UNK     0      -1.959  -2.097  24.522  0.00  0.00     0.136 C 
BRANCH  27  28
HETATM   28  N   UNK     0      -2.044  -1.920  22.994  0.00  0.00    -0.412 N 
BRANCH  28  29
HETATM   29  C   UNK     0      -3.166  -2.613  22.199  0.00  0.00     0.112 C 
HETATM   30  C   UNK     0      -4.265  -1.770  21.524  0.00  0.00     0.026 C 
ENDBRANCH  28  29
BRANCH  28  31
HETATM   31  C   UNK     0      -1.006  -1.049  22.262  0.00  0.00     0.112 C 
HETATM   32  C   UNK     0      -0.548  -1.429  20.841  0.00  0.00     0.026 C 
ENDBRANCH  28  31
ENDBRANCH  27  28
ENDBRANCH  26  27
ENDBRANCH  24  26
ENDBRANCH  21  24
ENDBRANCH  17  21
ENDBRANCH  12  13
ENDBRANCH   4  12
BRANCH   7  33
HETATM   33  O   UNK     0       1.204 -10.061  22.526  0.00  0.00    -0.346 OA
HETATM   34  HO  UNK     0       0.473  -9.945  23.122  1.00  0.00     0.219 HD
ENDBRANCH   7  33
TORSDOF 11
ENDMDL
MODEL 4
REMARK VINA RESULT:      -7.9      9.033     11.336
REMARK  11 active torsions:
REMARK  status: ('A' for Active; 'I' for Inactive)
REMARK    1  A    between atoms: O_2  and  C_21 
REMARK    2  A    between atoms: O_4  and  C_28 
REMARK    3  A    between atoms: N_6  and  C_13 
REMARK    4  A    between atoms: N_6  and  C_19 
REMARK    5  A    between atoms: N_6  and  C_20 
REMARK    6  A    between atoms: N_9  and  C_17 
REMARK    7  A    between atoms: N_9  and  C_21 
REMARK    8  A    between atoms: C_13  and  C_17 
REMARK    9  A    between atoms: C_14  and  C_21 
REMARK   10  A    between atoms: C_16  and  C_23 
REMARK   11  A    between atoms: C_22  and  C_23 
ROOT
HETATM    1  F   UNK     0       0.378  -9.207  19.038  0.00  0.00    -0.215 F 
HETATM    2  N   UNK     0      -0.221  -6.946  24.699  0.00  0.00    -0.340 N 
HETATM    3  HN  UNK     0      -0.198  -7.338  25.641  1.00  0.00     0.168 HD
HETATM    4  C   UNK     0      -0.400  -5.338  22.820  0.00  0.00     0.007 A 
HETATM    5  C   UNK     0      -0.153  -6.727  22.227  0.00  0.00    -0.019 A 
HETATM    6  C   UNK     0      -0.042  -7.726  23.394  0.00  0.00     0.019 A 
HETATM    7  C   UNK     0      -0.443  -5.472  24.345  0.00  0.00     0.147 A 
HETATM    8  C   UNK     0      -0.013  -7.221  20.775  0.00  0.00     0.106 A 
HETATM    9  C   UNK     0       0.210  -9.218  23.109  0.00  0.00     0.064 A 
HETATM   10  C   UNK     0       0.238  -8.713  20.491  0.00  0.00     0.076 A 
HETATM   11  C   UNK     0       0.350  -9.712  21.658  0.00  0.00     0.072 A 
ENDROOT
BRANCH   4  12
HETATM   12  C   UNK     0      -0.576  -4.032  22.023  0.00  0.00     0.101 C 
BRANCH  12  13
HETATM   13  C   UNK     0      -1.949  -3.336  21.979  0.00  0.00     0.020 A 
HETATM   14  N   UNK     0      -3.194  -3.737  22.790  0.00  0.00    -0.362 N 
HETATM   15  C   UNK     0      -4.332  -2.764  22.429  0.00  0.00     0.020 A 
HETATM   16  HN  UNK     0      -3.255  -4.512  23.451  1.00  0.00     0.165 HD
HETATM   17  C   UNK     0      -3.790  -1.761  21.394  0.00  0.00     0.044 A 
HETATM   18  C   UNK     0      -5.761  -2.790  23.002  0.00  0.00     0.069 C 
HETATM   19  C   UNK     0      -2.317  -2.114  21.116  0.00  0.00    -0.023 A 
HETATM   20  C   UNK     0      -1.377  -1.376  20.145  0.00  0.00     0.051 C 
BRANCH  17  21
HETATM   21  C   UNK     0      -4.581  -0.608  20.750  0.00  0.00     0.148 C 
BRANCH  21  22
HETATM   22  O   UNK     0      -5.599  -0.902  19.632  0.00  0.00    -0.346 OA
HETATM   23  HO  UNK     0      -5.341  -1.422  18.880  1.00  0.00     0.219 HD
ENDBRANCH  21  22
BRANCH  21  24
HETATM   24  N   UNK     0      -4.356   0.840  21.225  0.00  0.00    -0.369 N 
HETATM   25  HN  UNK     0      -3.905   1.515  20.606  1.00  0.00     0.161 HD
BRANCH  24  26
HETATM   26  C   UNK     0      -4.810   1.268  22.632  0.00  0.00     0.141 C 
BRANCH  26  27
HETATM   27  C   UNK     0      -3.886   2.132  23.510  0.00  0.00     0.136 C 
BRANCH  27  28
HETATM   28  N   UNK     0      -2.542   1.564  24.006  0.00  0.00    -0.412 N 
BRANCH  28  29
HETATM   29  C   UNK     0      -2.523   0.408  25.023  0.00  0.00     0.112 C 
HETATM   30  C   UNK     0      -1.732  -0.876  24.714  0.00  0.00     0.026 C 
ENDBRANCH  28  29
BRANCH  28  31
HETATM   31  C   UNK     0      -1.219   2.153  23.484  0.00  0.00     0.112 C 
HETATM   32  C   UNK     0      -0.673   1.721  22.109  0.00  0.00     0.026 C 
ENDBRANCH  28  31
ENDBRANCH  27  28
ENDBRANCH  26  27
ENDBRANCH  24  26
ENDBRANCH  21  24
ENDBRANCH  17  21
ENDBRANCH  12  13
ENDBRANCH   4  12
BRANCH   7  33
HETATM   33  O   UNK     0      -0.669  -4.325  25.347  0.00  0.00    -0.346 OA
HETATM   34  HO  UNK     0      -0.238  -4.226  26.188  1.00  0.00     0.219 HD
ENDBRANCH   7  33
TORSDOF 11
ENDMDL
MODEL 5
REMARK VINA RESULT:      -7.5      8.062     11.012
REMARK  11 active torsions:
REMARK  status: ('A' for Active; 'I' for Inactive)
REMARK    1  A    between atoms: O_2  and  C_21 
REMARK    2  A    between atoms: O_4  and  C_28 
REMARK    3  A    between atoms: N_6  and  C_13 
REMARK    4  A    between atoms: N_6  and  C_19 
REMARK    5  A    between atoms: N_6  and  C_20 
REMARK    6  A    between atoms: N_9  and  C_17 
REMARK    7  A    between atoms: N_9  and  C_21 
REMARK    8  A    between atoms: C_13  and  C_17 
REMARK    9  A    between atoms: C_14  and  C_21 
REMARK   10  A    between atoms: C_16  and  C_23 
REMARK   11  A    between atoms: C_22  and  C_23 
ROOT
HETATM    1  F   UNK     0      -0.256  -7.572  17.428  0.00  0.00    -0.215 F 
HETATM    2  N   UNK     0       1.335 -10.162  22.746  0.00  0.00    -0.340 N 
HETATM    3  HN  UNK     0       2.030 -10.851  23.035  1.00  0.00     0.168 HD
HETATM    4  C   UNK     0      -0.514  -8.511  22.807  0.00  0.00     0.007 A 
HETATM    5  C   UNK     0      -0.035  -8.626  21.357  0.00  0.00    -0.019 A 
HETATM    6  C   UNK     0       1.113  -9.652  21.320  0.00  0.00     0.019 A 
HETATM    7  C   UNK     0       0.331  -9.458  23.663  0.00  0.00     0.147 A 
HETATM    8  C   UNK     0      -0.491  -7.933  20.060  0.00  0.00     0.106 A 
HETATM    9  C   UNK     0       1.805  -9.984  19.984  0.00  0.00     0.064 A 
HETATM   10  C   UNK     0       0.200  -8.265  18.725  0.00  0.00     0.076 A 
HETATM   11  C   UNK     0       1.349  -9.291  18.688  0.00  0.00     0.072 A 
ENDROOT
BRANCH   4  12
HETATM   12  C   UNK     0      -1.647  -7.600  23.315  0.00  0.00     0.101 C 
BRANCH  12  13
HETATM   13  C   UNK     0      -1.504  -6.070  23.227  0.00  0.00     0.020 A 
HETATM   14  N   UNK     0      -0.900  -5.284  22.050  0.00  0.00    -0.362 N 
HETATM   15  C   UNK     0      -0.963  -3.784  22.397  0.00  0.00     0.020 A 
HETATM   16  HN  UNK     0      -0.525  -5.684  21.190  1.00  0.00     0.165 HD
HETATM   17  C   UNK     0      -1.605  -3.644  23.790  0.00  0.00     0.044 A 
HETATM   18  C   UNK     0      -0.469  -2.628  21.507  0.00  0.00     0.069 C 
HETATM   19  C   UNK     0      -1.939  -5.057  24.303  0.00  0.00    -0.023 A 
HETATM   20  C   UNK     0      -2.595  -5.397  25.654  0.00  0.00     0.051 C 
BRANCH  17  21
HETATM   21  C   UNK     0      -1.866  -2.324  24.537  0.00  0.00     0.148 C 
BRANCH  21  22
HETATM   22  O   UNK     0      -1.126  -2.024  25.854  0.00  0.00    -0.346 OA
HETATM   23  HO  UNK     0      -0.428  -2.599  26.147  1.00  0.00     0.219 HD
ENDBRANCH  21  22
BRANCH  21  24
HETATM   24  N   UNK     0      -2.869  -1.302  23.968  0.00  0.00    -0.369 N 
HETATM   25  HN  UNK     0      -3.870  -1.499  23.995  1.00  0.00     0.161 HD
BRANCH  24  26
HETATM   26  C   UNK     0      -2.360   0.017  23.357  0.00  0.00     0.141 C 
BRANCH  26  27
HETATM   27  C   UNK     0      -3.057   0.611  22.119  0.00  0.00     0.136 C 
BRANCH  27  28
HETATM   28  N   UNK     0      -4.118  -0.212  21.363  0.00  0.00    -0.412 N 
BRANCH  28  29
HETATM   29  C   UNK     0      -5.616   0.049  21.610  0.00  0.00     0.112 C 
HETATM   30  C   UNK     0      -6.302  -0.531  22.861  0.00  0.00     0.026 C 
ENDBRANCH  28  29
BRANCH  28  31
HETATM   31  C   UNK     0      -3.680  -1.295  20.360  0.00  0.00     0.112 C 
HETATM   32  C   UNK     0      -2.671  -0.951  19.248  0.00  0.00     0.026 C 
ENDBRANCH  28  31
ENDBRANCH  27  28
ENDBRANCH  26  27
ENDBRANCH  24  26
ENDBRANCH  21  24
ENDBRANCH  17  21
ENDBRANCH  12  13
ENDBRANCH   4  12
BRANCH   7  33
HETATM   33  O   UNK     0       0.195  -9.666  25.183  0.00  0.00    -0.346 OA
HETATM   34  HO  UNK     0       0.590 -10.367  25.688  1.00  0.00     0.219 HD
ENDBRANCH   7  33
TORSDOF 11
ENDMDL
MODEL 6
REMARK VINA RESULT:      -7.4      8.935     11.884
REMARK  11 active torsions:
REMARK  status: ('A' for Active; 'I' for Inactive)
REMARK    1  A    between atoms: O_2  and  C_21 
REMARK    2  A    between atoms: O_4  and  C_28 
REMARK    3  A    between atoms: N_6  and  C_13 
REMARK    4  A    between atoms: N_6  and  C_19 
REMARK    5  A    between atoms: N_6  and  C_20 
REMARK    6  A    between atoms: N_9  and  C_17 
REMARK    7  A    between atoms: N_9  and  C_21 
REMARK    8  A    between atoms: C_13  and  C_17 
REMARK    9  A    between atoms: C_14  and  C_21 
REMARK   10  A    between atoms: C_16  and  C_23 
REMARK   11  A    between atoms: C_22  and  C_23 
ROOT
HETATM    1  F   UNK     0       1.254  -8.823  18.851  0.00  0.00    -0.215 F 
HETATM    2  N   UNK     0      -0.786  -7.467  24.464  0.00  0.00    -0.340 N 
HETATM    3  HN  UNK     0      -0.965  -7.999  25.317  1.00  0.00     0.168 HD
HETATM    4  C   UNK     0      -0.602  -5.594  22.851  0.00  0.00     0.007 A 
HETATM    5  C   UNK     0      -0.147  -6.871  22.141  0.00  0.00    -0.019 A 
HETATM    6  C   UNK     0      -0.262  -8.035  23.143  0.00  0.00     0.019 A 
HETATM    7  C   UNK     0      -0.996  -5.960  24.284  0.00  0.00     0.147 A 
HETATM    8  C   UNK     0       0.358  -7.134  20.710  0.00  0.00     0.106 A 
HETATM    9  C   UNK     0       0.129  -9.461  22.714  0.00  0.00     0.064 A 
HETATM   10  C   UNK     0       0.749  -8.560  20.282  0.00  0.00     0.076 A 
HETATM   11  C   UNK     0       0.634  -9.724  21.284  0.00  0.00     0.072 A 
ENDROOT
BRANCH   4  12
HETATM   12  C   UNK     0      -0.654  -4.184  22.232  0.00  0.00     0.101 C 
BRANCH  12  13
HETATM   13  C   UNK     0      -2.000  -3.446  22.110  0.00  0.00     0.020 A 
HETATM   14  N   UNK     0      -3.293  -3.790  22.872  0.00  0.00    -0.362 N 
HETATM   15  C   UNK     0      -4.381  -2.790  22.437  0.00  0.00     0.020 A 
HETATM   16  HN  UNK     0      -3.409  -4.546  23.546  1.00  0.00     0.165 HD
HETATM   17  C   UNK     0      -3.761  -1.829  21.406  0.00  0.00     0.044 A 
HETATM   18  C   UNK     0      -5.835  -2.758  22.944  0.00  0.00     0.069 C 
HETATM   19  C   UNK     0      -2.289  -2.234  21.205  0.00  0.00    -0.023 A 
HETATM   20  C   UNK     0      -1.282  -1.548  20.262  0.00  0.00     0.051 C 
BRANCH  17  21
HETATM   21  C   UNK     0      -4.484  -0.667  20.702  0.00  0.00     0.148 C 
BRANCH  21  22
HETATM   22  O   UNK     0      -5.515  -0.959  19.596  0.00  0.00    -0.346 OA
HETATM   23  HO  UNK     0      -6.190  -0.321  19.395  1.00  0.00     0.219 HD
ENDBRANCH  21  22
BRANCH  21  24
HETATM   24  N   UNK     0      -4.178   0.788  21.104  0.00  0.00    -0.369 N 
HETATM   25  HN  UNK     0      -4.614   1.560  20.599  1.00  0.00     0.161 HD
BRANCH  24  26
HETATM   26  C   UNK     0      -3.212   1.077  22.268  0.00  0.00     0.141 C 
BRANCH  26  27
HETATM   27  C   UNK     0      -3.648   2.006  23.417  0.00  0.00     0.136 C 
BRANCH  27  28
HETATM   28  N   UNK     0      -5.145   2.195  23.729  0.00  0.00    -0.412 N 
BRANCH  28  29
HETATM   29  C   UNK     0      -5.897   3.422  23.179  0.00  0.00     0.112 C 
HETATM   30  C   UNK     0      -6.632   3.332  21.829  0.00  0.00     0.026 C 
ENDBRANCH  28  29
BRANCH  28  31
HETATM   31  C   UNK     0      -5.888   1.157  24.590  0.00  0.00     0.112 C 
HETATM   32  C   UNK     0      -7.410   1.278  24.797  0.00  0.00     0.026 C 
ENDBRANCH  28  31
ENDBRANCH  27  28
ENDBRANCH  26  27
ENDBRANCH  24  26
ENDBRANCH  21  24
ENDBRANCH  17  21
ENDBRANCH  12  13
ENDBRANCH   4  12
BRANCH   7  33
HETATM   33  O   UNK     0      -1.513  -4.985  25.358  0.00  0.00    -0.346 OA
HETATM   34  HO  UNK     0      -1.580  -4.041  25.269  1.00  0.00     0.219 HD
ENDBRANCH   7  33
TORSDOF 11
ENDMDL
MODEL 7
REMARK VINA RESULT:      -6.8      8.896     12.384
REMARK  11 active torsions:
REMARK  status: ('A' for Active; 'I' for Inactive)
REMARK    1  A    between atoms: O_2  and  C_21 
REMARK    2  A    between atoms: O_4  and  C_28 
REMARK    3  A    between atoms: N_6  and  C_13 
REMARK    4  A    between atoms: N_6  and  C_19 
REMARK    5  A    between atoms: N_6  and  C_20 
REMARK    6  A    between atoms: N_9  and  C_17 
REMARK    7  A    between atoms: N_9  and  C_21 
REMARK    8  A    between atoms: C_13  and  C_17 
REMARK    9  A    between atoms: C_14  and  C_21 
REMARK   10  A    between atoms: C_16  and  C_23 
REMARK   11  A    between atoms: C_22  and  C_23 
ROOT
HETATM    1  F   UNK     0       0.512  -1.534  21.214  0.00  0.00    -0.215 F 
HETATM    2  N   UNK     0      -5.606  -1.436  20.939  0.00  0.00    -0.340 N 
HETATM    3  HN  UNK     0      -6.294  -1.176  20.231  1.00  0.00     0.168 HD
HETATM    4  C   UNK     0      -4.587  -2.213  23.061  0.00  0.00     0.007 A 
HETATM    5  C   UNK     0      -3.452  -1.860  22.098  0.00  0.00    -0.019 A 
HETATM    6  C   UNK     0      -4.085  -1.377  20.780  0.00  0.00     0.019 A 
HETATM    7  C   UNK     0      -5.916  -1.952  22.347  0.00  0.00     0.147 A 
HETATM    8  C   UNK     0      -1.919  -1.912  22.243  0.00  0.00     0.106 A 
HETATM    9  C   UNK     0      -3.185  -0.946  19.606  0.00  0.00     0.064 A 
HETATM   10  C   UNK     0      -1.020  -1.482  21.069  0.00  0.00     0.076 A 
HETATM   11  C   UNK     0      -1.653  -0.999  19.751  0.00  0.00     0.072 A 
ENDROOT
BRANCH   4  12
HETATM   12  C   UNK     0      -4.423  -2.740  24.499  0.00  0.00     0.101 C 
BRANCH  12  13
HETATM   13  C   UNK     0      -3.901  -4.169  24.741  0.00  0.00     0.020 A 
HETATM   14  N   UNK     0      -4.624  -5.473  24.357  0.00  0.00    -0.362 N 
HETATM   15  C   UNK     0      -3.734  -6.654  24.788  0.00  0.00     0.020 A 
HETATM   16  HN  UNK     0      -5.531  -5.543  23.898  1.00  0.00     0.165 HD
HETATM   17  C   UNK     0      -2.462  -6.080  25.438  0.00  0.00     0.044 A 
HETATM   18  C   UNK     0      -4.060  -8.148  24.601  0.00  0.00     0.069 C 
HETATM   19  C   UNK     0      -2.565  -4.544  25.409  0.00  0.00    -0.023 A 
HETATM   20  C   UNK     0      -1.516  -3.555  25.953  0.00  0.00     0.051 C 
BRANCH  17  21
HETATM   21  C   UNK     0      -1.292  -6.897  26.015  0.00  0.00     0.148 C 
BRANCH  21  22
HETATM   22  O   UNK     0      -1.323  -7.353  27.487  0.00  0.00    -0.346 OA
HETATM   23  HO  UNK     0      -1.660  -8.212  27.711  1.00  0.00     0.219 HD
ENDBRANCH  21  22
BRANCH  21  24
HETATM   24  N   UNK     0      -0.091  -7.260  25.122  0.00  0.00    -0.369 N 
HETATM   25  HN  UNK     0       0.753  -6.688  25.145  1.00  0.00     0.161 HD
BRANCH  24  26
HETATM   26  C   UNK     0      -0.165  -8.487  24.194  0.00  0.00     0.141 C 
BRANCH  26  27
HETATM   27  C   UNK     0      -0.807  -8.360  22.800  0.00  0.00     0.136 C 
BRANCH  27  28
HETATM   28  N   UNK     0      -0.030  -7.685  21.654  0.00  0.00    -0.412 N 
BRANCH  28  29
HETATM   29  C   UNK     0       0.421  -6.218  21.788  0.00  0.00     0.112 C 
HETATM   30  C   UNK     0      -0.590  -5.139  22.216  0.00  0.00     0.026 C 
ENDBRANCH  28  29
BRANCH  28  31
HETATM   31  C   UNK     0       0.296  -8.477  20.374  0.00  0.00     0.112 C 
HETATM   32  C   UNK     0       0.935  -9.875  20.476  0.00  0.00     0.026 C 
ENDBRANCH  28  31
ENDBRANCH  27  28
ENDBRANCH  26  27
ENDBRANCH  24  26
ENDBRANCH  21  24
ENDBRANCH  17  21
ENDBRANCH  12  13
ENDBRANCH   4  12
BRANCH   7  33
HETATM   33  O   UNK     0      -7.320  -2.170  22.941  0.00  0.00    -0.346 OA
HETATM   34  HO  UNK     0      -8.144  -2.063  22.480  1.00  0.00     0.219 HD
ENDBRANCH   7  33
TORSDOF 11
ENDMDL
MODEL 8
REMARK VINA RESULT:      -6.7      8.274     11.570
REMARK  11 active torsions:
REMARK  status: ('A' for Active; 'I' for Inactive)
REMARK    1  A    between atoms: O_2  and  C_21 
REMARK    2  A    between atoms: O_4  and  C_28 
REMARK    3  A    between atoms: N_6  and  C_13 
REMARK    4  A    between atoms: N_6  and  C_19 
REMARK    5  A    between atoms: N_6  and  C_20 
REMARK    6  A    between atoms: N_9  and  C_17 
REMARK    7  A    between atoms: N_9  and  C_21 
REMARK    8  A    between atoms: C_13  and  C_17 
REMARK    9  A    between atoms: C_14  and  C_21 
REMARK   10  A    between atoms: C_16  and  C_23 
REMARK   11  A    between atoms: C_22  and  C_23 
ROOT
HETATM    1  F   UNK     0      -0.428  -7.529  17.731  0.00  0.00    -0.215 F 
HETATM    2  N   UNK     0       1.188 -10.033  23.083  0.00  0.00    -0.340 N 
HETATM    3  HN  UNK     0       1.878 -10.724  23.378  1.00  0.00     0.168 HD
HETATM    4  C   UNK     0      -0.639  -8.358  23.130  0.00  0.00     0.007 A 
HETATM    5  C   UNK     0      -0.178  -8.508  21.678  0.00  0.00    -0.019 A 
HETATM    6  C   UNK     0       0.957  -9.548  21.649  0.00  0.00     0.019 A 
HETATM    7  C   UNK     0       0.203  -9.298  23.997  0.00  0.00     0.147 A 
HETATM    8  C   UNK     0      -0.639  -7.835  20.372  0.00  0.00     0.106 A 
HETATM    9  C   UNK     0       1.631  -9.916  20.313  0.00  0.00     0.064 A 
HETATM   10  C   UNK     0       0.034  -8.202  19.037  0.00  0.00     0.076 A 
HETATM   11  C   UNK     0       1.169  -9.243  19.008  0.00  0.00     0.072 A 
ENDROOT
BRANCH   4  12
HETATM   12  C   UNK     0      -1.756  -7.424  23.632  0.00  0.00     0.101 C 
BRANCH  12  13
HETATM   13  C   UNK     0      -1.654  -5.905  23.395  0.00  0.00     0.020 A 
HETATM   14  N   UNK     0      -0.912  -5.218  22.235  0.00  0.00    -0.362 N 
HETATM   15  C   UNK     0      -1.077  -3.696  22.400  0.00  0.00     0.020 A 
HETATM   16  HN  UNK     0      -0.401  -5.688  21.488  1.00  0.00     0.165 HD
HETATM   17  C   UNK     0      -1.922  -3.442  23.663  0.00  0.00     0.044 A 
HETATM   18  C   UNK     0      -0.499  -2.616  21.466  0.00  0.00     0.069 C 
HETATM   19  C   UNK     0      -2.279  -4.808  24.277  0.00  0.00    -0.023 A 
HETATM   20  C   UNK     0      -3.113  -5.037  25.551  0.00  0.00     0.051 C 
BRANCH  17  21
HETATM   21  C   UNK     0      -2.336  -2.066  24.213  0.00  0.00     0.148 C 
BRANCH  21  22
HETATM   22  O   UNK     0      -3.674  -1.434  23.781  0.00  0.00    -0.346 OA
HETATM   23  HO  UNK     0      -4.375  -1.329  24.414  1.00  0.00     0.219 HD
ENDBRANCH  21  22
BRANCH  21  24
HETATM   24  N   UNK     0      -1.414  -1.319  25.195  0.00  0.00    -0.369 N 
HETATM   25  HN  UNK     0      -0.539  -1.747  25.498  1.00  0.00     0.161 HD
BRANCH  24  26
HETATM   26  C   UNK     0      -1.813   0.073  25.718  0.00  0.00     0.141 C 
BRANCH  26  27
HETATM   27  C   UNK     0      -0.943   1.299  25.385  0.00  0.00     0.136 C 
BRANCH  27  28
HETATM   28  N   UNK     0      -1.322   2.216  24.207  0.00  0.00    -0.412 N 
BRANCH  28  29
HETATM   29  C   UNK     0      -0.694   3.617  24.088  0.00  0.00     0.112 C 
HETATM   30  C   UNK     0       0.473   4.018  25.009  0.00  0.00     0.026 C 
ENDBRANCH  28  29
BRANCH  28  31
HETATM   31  C   UNK     0      -2.330   1.731  23.148  0.00  0.00     0.112 C 
HETATM   32  C   UNK     0      -1.835   0.953  21.914  0.00  0.00     0.026 C 
ENDBRANCH  28  31
ENDBRANCH  27  28
ENDBRANCH  26  27
ENDBRANCH  24  26
ENDBRANCH  21  24
ENDBRANCH  17  21
ENDBRANCH  12  13
ENDBRANCH   4  12
BRANCH   7  33
HETATM   33  O   UNK     0       0.081  -9.474  25.522  0.00  0.00    -0.346 OA
HETATM   34  HO  UNK     0      -0.704  -9.334  26.038  1.00  0.00     0.219 HD
ENDBRANCH   7  33
TORSDOF 11
ENDMDL
MODEL 9
REMARK VINA RESULT:      -6.7     10.697     14.773
REMARK  11 active torsions:
REMARK  status: ('A' for Active; 'I' for Inactive)
REMARK    1  A    between atoms: O_2  and  C_21 
REMARK    2  A    between atoms: O_4  and  C_28 
REMARK    3  A    between atoms: N_6  and  C_13 
REMARK    4  A    between atoms: N_6  and  C_19 
REMARK    5  A    between atoms: N_6  and  C_20 
REMARK    6  A    between atoms: N_9  and  C_17 
REMARK    7  A    between atoms: N_9  and  C_21 
REMARK    8  A    between atoms: C_13  and  C_17 
REMARK    9  A    between atoms: C_14  and  C_21 
REMARK   10  A    between atoms: C_16  and  C_23 
REMARK   11  A    between atoms: C_22  and  C_23 
ROOT
HETATM    1  F   UNK     0       0.561   2.160  23.442  0.00  0.00    -0.215 F 
HETATM    2  N   UNK     0      -2.896  -1.477  19.929  0.00  0.00    -0.340 N 
HETATM    3  HN  UNK     0      -2.719  -2.288  19.335  1.00  0.00     0.168 HD
HETATM    4  C   UNK     0      -4.052   0.360  21.126  0.00  0.00     0.007 A 
HETATM    5  C   UNK     0      -2.564   0.434  21.479  0.00  0.00    -0.019 A 
HETATM    6  C   UNK     0      -1.846  -0.708  20.735  0.00  0.00     0.019 A 
HETATM    7  C   UNK     0      -4.257  -0.818  20.171  0.00  0.00     0.147 A 
HETATM    8  C   UNK     0      -1.761   1.390  22.381  0.00  0.00     0.106 A 
HETATM    9  C   UNK     0      -0.325  -0.893  20.894  0.00  0.00     0.064 A 
HETATM   10  C   UNK     0      -0.241   1.204  22.540  0.00  0.00     0.076 A 
HETATM   11  C   UNK     0       0.477   0.063  21.796  0.00  0.00     0.072 A 
ENDROOT
BRANCH   4  12
HETATM   12  C   UNK     0      -5.151   1.307  21.643  0.00  0.00     0.101 C 
BRANCH  12  13
HETATM   13  C   UNK     0      -6.472   0.730  22.185  0.00  0.00     0.020 A 
HETATM   14  N   UNK     0      -7.633   0.177  21.338  0.00  0.00    -0.362 N 
HETATM   15  C   UNK     0      -8.742  -0.290  22.299  0.00  0.00     0.020 A 
HETATM   16  HN  UNK     0      -7.663   0.129  20.320  1.00  0.00     0.165 HD
HETATM   17  C   UNK     0      -8.266  -0.027  23.740  0.00  0.00     0.044 A 
HETATM   18  C   UNK     0     -10.091  -0.912  21.891  0.00  0.00     0.069 C 
HETATM   19  C   UNK     0      -6.863   0.604  23.669  0.00  0.00    -0.023 A 
HETATM   20  C   UNK     0      -6.002   1.033  24.871  0.00  0.00     0.051 C 
BRANCH  17  21
HETATM   21  C   UNK     0      -9.055  -0.339  25.025  0.00  0.00     0.148 C 
BRANCH  21  22
HETATM   22  O   UNK     0     -10.321   0.469  25.367  0.00  0.00    -0.346 OA
HETATM   23  HO  UNK     0     -10.244   1.366  25.673  1.00  0.00     0.219 HD
ENDBRANCH  21  22
BRANCH  21  24
HETATM   24  N   UNK     0      -8.577  -1.459  25.968  0.00  0.00    -0.369 N 
HETATM   25  HN  UNK     0      -8.411  -1.259  26.955  1.00  0.00     0.161 HD
BRANCH  24  26
HETATM   26  C   UNK     0      -8.351  -2.881  25.422  0.00  0.00     0.141 C 
BRANCH  26  27
HETATM   27  C   UNK     0      -6.926  -3.361  25.092  0.00  0.00     0.136 C 
BRANCH  27  28
HETATM   28  N   UNK     0      -6.547  -3.710  23.640  0.00  0.00    -0.412 N 
BRANCH  28  29
HETATM   29  C   UNK     0      -7.340  -4.785  22.875  0.00  0.00     0.112 C 
HETATM   30  C   UNK     0      -8.636  -4.405  22.135  0.00  0.00     0.026 C 
ENDBRANCH  28  29
BRANCH  28  31
HETATM   31  C   UNK     0      -5.375  -2.983  22.955  0.00  0.00     0.112 C 
HETATM   32  C   UNK     0      -4.398  -2.138  23.794  0.00  0.00     0.026 C 
ENDBRANCH  28  31
ENDBRANCH  27  28
ENDBRANCH  26  27
ENDBRANCH  24  26
ENDBRANCH  21  24
ENDBRANCH  17  21
ENDBRANCH  12  13
ENDBRANCH   4  12
BRANCH   7  33
HETATM   33  O   UNK     0      -5.598  -1.263  19.558  0.00  0.00    -0.346 OA
HETATM   34  HO  UNK     0      -5.709  -1.896  18.859  1.00  0.00     0.219 HD
ENDBRANCH   7  33
TORSDOF 11
ENDMDL
MODEL 10
REMARK VINA RESULT:      -6.6      9.077     11.375
REMARK  11 active torsions:
REMARK  status: ('A' for Active; 'I' for Inactive)
REMARK    1  A    between atoms: O_2  and  C_21 
REMARK    2  A    between atoms: O_4  and  C_28 
REMARK    3  A    between atoms: N_6  and  C_13 
REMARK    4  A    between atoms: N_6  and  C_19 
REMARK    5  A    between atoms: N_6  and  C_20 
REMARK    6  A    between atoms: N_9  and  C_17 
REMARK    7  A    between atoms: N_9  and  C_21 
REMARK    8  A    between atoms: C_13  and  C_17 
REMARK    9  A    between atoms: C_14  and  C_21 
REMARK   10  A    between atoms: C_16  and  C_23 
REMARK   11  A    between atoms: C_22  and  C_23 
ROOT
HETATM    1  F   UNK     0      -1.391  -6.741  19.777  0.00  0.00    -0.215 F 
HETATM    2  N   UNK     0       1.267 -10.468  23.847  0.00  0.00    -0.340 N 
HETATM    3  HN  UNK     0       1.983 -11.194  23.802  1.00  0.00     0.168 HD
HETATM    4  C   UNK     0      -0.454  -8.905  24.708  0.00  0.00     0.007 A 
HETATM    5  C   UNK     0      -0.323  -8.674  23.201  0.00  0.00    -0.019 A 
HETATM    6  C   UNK     0       0.747  -9.644  22.666  0.00  0.00     0.019 A 
HETATM    7  C   UNK     0       0.526 -10.011  25.107  0.00  0.00     0.147 A 
HETATM    8  C   UNK     0      -1.035  -7.706  22.238  0.00  0.00     0.106 A 
HETATM    9  C   UNK     0       1.103  -9.647  21.167  0.00  0.00     0.064 A 
HETATM   10  C   UNK     0      -0.679  -7.709  20.740  0.00  0.00     0.076 A 
HETATM   11  C   UNK     0       0.391  -8.680  20.205  0.00  0.00     0.072 A 
ENDROOT
BRANCH   4  12
HETATM   12  C   UNK     0      -1.406  -8.156  25.659  0.00  0.00     0.101 C 
BRANCH  12  13
HETATM   13  C   UNK     0      -1.987  -6.790  25.248  0.00  0.00     0.020 A 
HETATM   14  N   UNK     0      -3.473  -6.476  25.000  0.00  0.00    -0.362 N 
HETATM   15  C   UNK     0      -3.586  -4.989  24.612  0.00  0.00     0.020 A 
HETATM   16  HN  UNK     0      -4.247  -7.135  25.078  1.00  0.00     0.165 HD
HETATM   17  C   UNK     0      -2.170  -4.385  24.620  0.00  0.00     0.044 A 
HETATM   18  C   UNK     0      -4.888  -4.239  24.274  0.00  0.00     0.069 C 
HETATM   19  C   UNK     0      -1.181  -5.498  25.014  0.00  0.00    -0.023 A 
HETATM   20  C   UNK     0       0.345  -5.346  25.149  0.00  0.00     0.051 C 
BRANCH  17  21
HETATM   21  C   UNK     0      -1.806  -2.926  24.294  0.00  0.00     0.148 C 
BRANCH  21  22
HETATM   22  O   UNK     0      -1.081  -2.059  25.340  0.00  0.00    -0.346 OA
HETATM   23  HO  UNK     0      -0.146  -1.906  25.264  1.00  0.00     0.219 HD
ENDBRANCH  21  22
BRANCH  21  24
HETATM   24  N   UNK     0      -2.168  -2.331  22.919  0.00  0.00    -0.369 N 
HETATM   25  HN  UNK     0      -3.146  -2.183  22.669  1.00  0.00     0.161 HD
BRANCH  24  26
HETATM   26  C   UNK     0      -1.054  -1.960  21.924  0.00  0.00     0.141 C 
BRANCH  26  27
HETATM   27  C   UNK     0      -0.479  -0.531  21.909  0.00  0.00     0.136 C 
BRANCH  27  28
HETATM   28  N   UNK     0      -1.316   0.641  22.458  0.00  0.00    -0.412 N 
BRANCH  28  29
HETATM   29  C   UNK     0      -0.942   1.290  23.803  0.00  0.00     0.112 C 
HETATM   30  C   UNK     0       0.538   1.428  24.206  0.00  0.00     0.026 C 
ENDBRANCH  28  29
BRANCH  28  31
HETATM   31  C   UNK     0      -2.525   1.162  21.660  0.00  0.00     0.112 C 
HETATM   32  C   UNK     0      -3.824   1.546  22.394  0.00  0.00     0.026 C 
ENDBRANCH  28  31
ENDBRANCH  27  28
ENDBRANCH  26  27
ENDBRANCH  24  26
ENDBRANCH  21  24
ENDBRANCH  17  21
ENDBRANCH  12  13
ENDBRANCH   4  12
BRANCH   7  33
HETATM   33  O   UNK     0       0.732 -10.568  26.528  0.00  0.00    -0.346 OA
HETATM   34  HO  UNK     0       1.462 -10.373  27.104  1.00  0.00     0.219 HD
ENDBRANCH   7  33
TORSDOF 11
ENDMDL
MODEL 11
REMARK VINA RESULT:      -6.6      8.994     11.384
REMARK  11 active torsions:
REMARK  status: ('A' for Active; 'I' for Inactive)
REMARK    1  A    between atoms: O_2  and  C_21 
REMARK    2  A    between atoms: O_4  and  C_28 
REMARK    3  A    between atoms: N_6  and  C_13 
REMARK    4  A    between atoms: N_6  and  C_19 
REMARK    5  A    between atoms: N_6  and  C_20 
REMARK    6  A    between atoms: N_9  and  C_17 
REMARK    7  A    between atoms: N_9  and  C_21 
REMARK    8  A    between atoms: C_13  and  C_17 
REMARK    9  A    between atoms: C_14  and  C_21 
REMARK   10  A    between atoms: C_16  and  C_23 
REMARK   11  A    between atoms: C_22  and  C_23 
ROOT
HETATM    1  F   UNK     0      -1.344  -6.436  20.284  0.00  0.00    -0.215 F 
HETATM    2  N   UNK     0       1.223 -10.701  23.853  0.00  0.00    -0.340 N 
HETATM    3  HN  UNK     0       1.941 -11.414  23.725  1.00  0.00     0.168 HD
HETATM    4  C   UNK     0      -0.524  -9.275  24.883  0.00  0.00     0.007 A 
HETATM    5  C   UNK     0      -0.356  -8.833  23.427  0.00  0.00    -0.019 A 
HETATM    6  C   UNK     0       0.729  -9.719  22.787  0.00  0.00     0.019 A 
HETATM    7  C   UNK     0       0.449 -10.427  25.146  0.00  0.00     0.147 A 
HETATM    8  C   UNK     0      -1.047  -7.739  22.592  0.00  0.00     0.106 A 
HETATM    9  C   UNK     0       1.123  -9.511  21.313  0.00  0.00     0.064 A 
HETATM   10  C   UNK     0      -0.653  -7.531  21.119  0.00  0.00     0.076 A 
HETATM   11  C   UNK     0       0.432  -8.417  20.479  0.00  0.00     0.072 A 
ENDROOT
BRANCH   4  12
HETATM   12  C   UNK     0      -1.502  -8.666  25.905  0.00  0.00     0.101 C 
BRANCH  12  13
HETATM   13  C   UNK     0      -1.966  -7.206  25.752  0.00  0.00     0.020 A 
HETATM   14  N   UNK     0      -1.182  -5.956  26.192  0.00  0.00    -0.362 N 
HETATM   15  C   UNK     0      -2.027  -4.717  25.844  0.00  0.00     0.020 A 
HETATM   16  HN  UNK     0      -0.264  -5.950  26.636  1.00  0.00     0.165 HD
HETATM   17  C   UNK     0      -3.334  -5.201  25.189  0.00  0.00     0.044 A 
HETATM   18  C   UNK     0      -1.635  -3.251  26.105  0.00  0.00     0.069 C 
HETATM   19  C   UNK     0      -3.296  -6.739  25.132  0.00  0.00    -0.023 A 
HETATM   20  C   UNK     0      -4.396  -7.651  24.556  0.00  0.00     0.051 C 
BRANCH  17  21
HETATM   21  C   UNK     0      -4.477  -4.304  24.680  0.00  0.00     0.148 C 
BRANCH  21  22
HETATM   22  O   UNK     0      -5.636  -3.924  25.621  0.00  0.00    -0.346 OA
HETATM   23  HO  UNK     0      -5.548  -3.181  26.206  1.00  0.00     0.219 HD
ENDBRANCH  21  22
BRANCH  21  24
HETATM   24  N   UNK     0      -4.463  -3.787  23.229  0.00  0.00    -0.369 N 
HETATM   25  HN  UNK     0      -5.142  -4.140  22.554  1.00  0.00     0.161 HD
BRANCH  24  26
HETATM   26  C   UNK     0      -3.423  -2.737  22.797  0.00  0.00     0.141 C 
BRANCH  26  27
HETATM   27  C   UNK     0      -2.896  -2.726  21.350  0.00  0.00     0.136 C 
BRANCH  27  28
HETATM   28  N   UNK     0      -2.602  -1.386  20.647  0.00  0.00    -0.412 N 
BRANCH  28  29
HETATM   29  C   UNK     0      -1.212  -0.736  20.780  0.00  0.00     0.112 C 
HETATM   30  C   UNK     0       0.004  -1.594  21.174  0.00  0.00     0.026 C 
ENDBRANCH  28  29
BRANCH  28  31
HETATM   31  C   UNK     0      -3.698  -0.698  19.813  0.00  0.00     0.112 C 
HETATM   32  C   UNK     0      -5.161  -0.718  20.298  0.00  0.00     0.026 C 
ENDBRANCH  28  31
ENDBRANCH  27  28
ENDBRANCH  26  27
ENDBRANCH  24  26
ENDBRANCH  21  24
ENDBRANCH  17  21
ENDBRANCH  12  13
ENDBRANCH   4  12
BRANCH   7  33
HETATM   33  O   UNK     0       0.620 -11.179  26.479  0.00  0.00    -0.346 OA
HETATM   34  HO  UNK     0       0.301 -10.892  27.327  1.00  0.00     0.219 HD
ENDBRANCH   7  33
TORSDOF 11
ENDMDL
MODEL 12
REMARK VINA RESULT:      -6.5      6.035     10.584
REMARK  11 active torsions:
REMARK  status: ('A' for Active; 'I' for Inactive)
REMARK    1  A    between atoms: O_2  and  C_21 
REMARK    2  A    between atoms: O_4  and  C_28 
REMARK    3  A    between atoms: N_6  and  C_13 
REMARK    4  A    between atoms: N_6  and  C_19 
REMARK    5  A    between atoms: N_6  and  C_20 
REMARK    6  A    between atoms: N_9  and  C_17 
REMARK    7  A    between atoms: N_9  and  C_21 
REMARK    8  A    between atoms: C_13  and  C_17 
REMARK    9  A    between atoms: C_14  and  C_21 
REMARK   10  A    between atoms: C_16  and  C_23 
REMARK   11  A    between atoms: C_22  and  C_23 
ROOT
HETATM    1  F   UNK     0      -5.838  -8.508  25.558  0.00  0.00    -0.215 F 
HETATM    2  N   UNK     0      -2.780 -13.815  25.596  0.00  0.00    -0.340 N 
HETATM    3  HN  UNK     0      -3.036 -14.798  25.497  1.00  0.00     0.168 HD
HETATM    4  C   UNK     0      -1.448 -11.747  25.904  0.00  0.00     0.007 A 
HETATM    5  C   UNK     0      -2.915 -11.341  25.744  0.00  0.00    -0.019 A 
HETATM    6  C   UNK     0      -3.742 -12.626  25.552  0.00  0.00     0.019 A 
HETATM    7  C   UNK     0      -1.364 -13.273  25.813  0.00  0.00     0.147 A 
HETATM    8  C   UNK     0      -3.614  -9.968  25.746  0.00  0.00     0.106 A 
HETATM    9  C   UNK     0      -5.268 -12.538  25.362  0.00  0.00     0.064 A 
HETATM   10  C   UNK     0      -5.139  -9.881  25.556  0.00  0.00     0.076 A 
HETATM   11  C   UNK     0      -5.966 -11.166  25.364  0.00  0.00     0.072 A 
ENDROOT
BRANCH   4  12
HETATM   12  C   UNK     0      -0.262 -10.788  26.120  0.00  0.00     0.101 C 
BRANCH  12  13
HETATM   13  C   UNK     0      -0.367  -9.320  25.667  0.00  0.00     0.020 A 
HETATM   14  N   UNK     0      -0.761  -8.125  26.553  0.00  0.00    -0.362 N 
HETATM   15  C   UNK     0      -0.733  -6.856  25.680  0.00  0.00     0.020 A 
HETATM   16  HN  UNK     0      -0.999  -8.166  27.544  1.00  0.00     0.165 HD
HETATM   17  C   UNK     0      -0.322  -7.267  24.254  0.00  0.00     0.044 A 
HETATM   18  C   UNK     0      -1.060  -5.426  26.151  0.00  0.00     0.069 C 
HETATM   19  C   UNK     0      -0.096  -8.790  24.246  0.00  0.00    -0.023 A 
HETATM   20  C   UNK     0       0.328  -9.636  23.030  0.00  0.00     0.051 C 
BRANCH  17  21
HETATM   21  C   UNK     0      -0.165  -6.322  23.050  0.00  0.00     0.148 C 
BRANCH  21  22
HETATM   22  O   UNK     0       0.546  -4.966  23.221  0.00  0.00    -0.346 OA
HETATM   23  HO  UNK     0       0.613  -4.572  24.083  1.00  0.00     0.219 HD
ENDBRANCH  21  22
BRANCH  21  24
HETATM   24  N   UNK     0      -0.719  -6.732  21.672  0.00  0.00    -0.369 N 
HETATM   25  HN  UNK     0      -1.725  -6.723  21.503  1.00  0.00     0.161 HD
BRANCH  24  26
HETATM   26  C   UNK     0       0.247  -7.156  20.550  0.00  0.00     0.141 C 
BRANCH  26  27
HETATM   27  C   UNK     0      -0.302  -7.816  19.271  0.00  0.00     0.136 C 
BRANCH  27  28
HETATM   28  N   UNK     0       0.670  -8.335  18.194  0.00  0.00    -0.412 N 
BRANCH  28  29
HETATM   29  C   UNK     0       0.525  -7.864  16.734  0.00  0.00     0.112 C 
HETATM   30  C   UNK     0       1.625  -6.996  16.093  0.00  0.00     0.026 C 
ENDBRANCH  28  29
BRANCH  28  31
HETATM   31  C   UNK     0       1.786  -9.324  18.577  0.00  0.00     0.112 C 
HETATM   32  C   UNK     0       1.524 -10.403  19.646  0.00  0.00     0.026 C 
ENDBRANCH  28  31
ENDBRANCH  27  28
ENDBRANCH  26  27
ENDBRANCH  24  26
ENDBRANCH  21  24
ENDBRANCH  17  21
ENDBRANCH  12  13
ENDBRANCH   4  12
BRANCH   7  33
HETATM   33  O   UNK     0      -0.080 -14.116  25.921  0.00  0.00    -0.346 OA
HETATM   34  HO  UNK     0       0.021 -14.917  26.422  1.00  0.00     0.219 HD
ENDBRANCH   7  33
TORSDOF 11
ENDMDL
MODEL 13
REMARK VINA RESULT:      -6.5      8.610     12.425
REMARK  11 active torsions:
REMARK  status: ('A' for Active; 'I' for Inactive)
REMARK    1  A    between atoms: O_2  and  C_21 
REMARK    2  A    between atoms: O_4  and  C_28 
REMARK    3  A    between atoms: N_6  and  C_13 
REMARK    4  A    between atoms: N_6  and  C_19 
REMARK    5  A    between atoms: N_6  and  C_20 
REMARK    6  A    between atoms: N_9  and  C_17 
REMARK    7  A    between atoms: N_9  and  C_21 
REMARK    8  A    between atoms: C_13  and  C_17 
REMARK    9  A    between atoms: C_14  and  C_21 
REMARK   10  A    between atoms: C_16  and  C_23 
REMARK   11  A    between atoms: C_22  and  C_23 
ROOT
HETATM    1  F   UNK     0      -2.865  -2.203   6.418  0.00  0.00    -0.215 F 
HETATM    2  N   UNK     0      -0.065   2.948   8.193  0.00  0.00    -0.340 N 
HETATM    3  HN  UNK     0      -0.215   3.634   8.934  1.00  0.00     0.168 HD
HETATM    4  C   UNK     0       0.893   1.763   6.237  0.00  0.00     0.007 A 
HETATM    5  C   UNK     0      -0.323   0.967   6.719  0.00  0.00    -0.019 A 
HETATM    6  C   UNK     0      -0.918   1.703   7.934  0.00  0.00     0.019 A 
HETATM    7  C   UNK     0       1.052   2.985   7.146  0.00  0.00     0.147 A 
HETATM    8  C   UNK     0      -0.972  -0.335   6.214  0.00  0.00     0.106 A 
HETATM    9  C   UNK     0      -2.162   1.137   8.643  0.00  0.00     0.064 A 
HETATM   10  C   UNK     0      -2.216  -0.900   6.923  0.00  0.00     0.076 A 
HETATM   11  C   UNK     0      -2.811  -0.164   8.138  0.00  0.00     0.072 A 
ENDROOT
BRANCH   4  12
HETATM   12  C   UNK     0       1.798   1.399   5.046  0.00  0.00     0.101 C 
BRANCH  12  13
HETATM   13  C   UNK     0       3.267   1.003   5.288  0.00  0.00     0.020 A 
HETATM   14  N   UNK     0       4.494   1.597   4.574  0.00  0.00    -0.362 N 
HETATM   15  C   UNK     0       5.751   0.903   5.132  0.00  0.00     0.020 A 
HETATM   16  HN  UNK     0       4.478   2.322   3.857  1.00  0.00     0.165 HD
HETATM   17  C   UNK     0       5.300  -0.120   6.191  0.00  0.00     0.044 A 
HETATM   18  C   UNK     0       7.204   1.184   4.705  0.00  0.00     0.069 C 
HETATM   19  C   UNK     0       3.765  -0.058   6.287  0.00  0.00    -0.023 A 
HETATM   20  C   UNK     0       2.882  -0.909   7.220  0.00  0.00     0.051 C 
BRANCH  17  21
HETATM   21  C   UNK     0       6.223  -1.041   7.009  0.00  0.00     0.148 C 
BRANCH  21  22
HETATM   22  O   UNK     0       6.064  -2.571   6.915  0.00  0.00    -0.346 OA
HETATM   23  HO  UNK     0       6.669  -3.079   6.387  1.00  0.00     0.219 HD
ENDBRANCH  21  22
BRANCH  21  24
HETATM   24  N   UNK     0       7.304  -0.434   7.922  0.00  0.00    -0.369 N 
HETATM   25  HN  UNK     0       7.930   0.287   7.563  1.00  0.00     0.161 HD
BRANCH  24  26
HETATM   26  C   UNK     0       7.442  -0.917   9.378  0.00  0.00     0.141 C 
BRANCH  26  27
HETATM   27  C   UNK     0       6.267  -1.640  10.063  0.00  0.00     0.136 C 
BRANCH  27  28
HETATM   28  N   UNK     0       6.350  -3.153  10.341  0.00  0.00    -0.412 N 
BRANCH  28  29
HETATM   29  C   UNK     0       7.703  -3.798  10.696  0.00  0.00     0.112 C 
HETATM   30  C   UNK     0       9.000  -3.261  10.064  0.00  0.00     0.026 C 
ENDBRANCH  28  29
BRANCH  28  31
HETATM   31  C   UNK     0       5.080  -4.020  10.263  0.00  0.00     0.112 C 
HETATM   32  C   UNK     0       3.935  -3.624   9.312  0.00  0.00     0.026 C 
ENDBRANCH  28  31
ENDBRANCH  27  28
ENDBRANCH  26  27
ENDBRANCH  24  26
ENDBRANCH  21  24
ENDBRANCH  17  21
ENDBRANCH  12  13
ENDBRANCH   4  12
BRANCH   7  33
HETATM   33  O   UNK     0       2.145   4.063   7.028  0.00  0.00    -0.346 OA
HETATM   34  HO  UNK     0       2.886   4.044   6.433  1.00  0.00     0.219 HD
ENDBRANCH   7  33
TORSDOF 11
ENDMDL
MODEL 14
REMARK VINA RESULT:      -6.5      9.192     13.049
REMARK  11 active torsions:
REMARK  status: ('A' for Active; 'I' for Inactive)
REMARK    1  A    between atoms: O_2  and  C_21 
REMARK    2  A    between atoms: O_4  and  C_28 
REMARK    3  A    between atoms: N_6  and  C_13 
REMARK    4  A    between atoms: N_6  and  C_19 
REMARK    5  A    between atoms: N_6  and  C_20 
REMARK    6  A    between atoms: N_9  and  C_17 
REMARK    7  A    between atoms: N_9  and  C_21 
REMARK    8  A    between atoms: C_13  and  C_17 
REMARK    9  A    between atoms: C_14  and  C_21 
REMARK   10  A    between atoms: C_16  and  C_23 
REMARK   11  A    between atoms: C_22  and  C_23 
ROOT
HETATM    1  F   UNK     0       0.266  -0.869  21.977  0.00  0.00    -0.215 F 
HETATM    2  N   UNK     0      -5.483  -1.123  19.880  0.00  0.00    -0.340 N 
HETATM    3  HN  UNK     0      -5.921  -1.052  18.961  1.00  0.00     0.168 HD
HETATM    4  C   UNK     0      -5.165  -1.388  22.324  0.00  0.00     0.007 A 
HETATM    5  C   UNK     0      -3.785  -1.191  21.690  0.00  0.00    -0.019 A 
HETATM    6  C   UNK     0      -3.983  -1.026  20.171  0.00  0.00     0.019 A 
HETATM    7  C   UNK     0      -6.212  -1.346  21.208  0.00  0.00     0.147 A 
HETATM    8  C   UNK     0      -2.369  -1.138  22.291  0.00  0.00     0.106 A 
HETATM    9  C   UNK     0      -2.765  -0.810  19.255  0.00  0.00     0.064 A 
HETATM   10  C   UNK     0      -1.151  -0.922  21.375  0.00  0.00     0.076 A 
HETATM   11  C   UNK     0      -1.349  -0.758  19.857  0.00  0.00     0.072 A 
ENDROOT
BRANCH   4  12
HETATM   12  C   UNK     0      -5.450  -1.592  23.824  0.00  0.00     0.101 C 
BRANCH  12  13
HETATM   13  C   UNK     0      -4.854  -2.805  24.562  0.00  0.00     0.020 A 
HETATM   14  N   UNK     0      -3.718  -2.764  25.600  0.00  0.00    -0.362 N 
HETATM   15  C   UNK     0      -3.452  -4.206  26.071  0.00  0.00     0.020 A 
HETATM   16  HN  UNK     0      -3.227  -1.929  25.920  1.00  0.00     0.165 HD
HETATM   17  C   UNK     0      -4.424  -5.138  25.325  0.00  0.00     0.044 A 
HETATM   18  C   UNK     0      -2.399  -4.640  27.108  0.00  0.00     0.069 C 
HETATM   19  C   UNK     0      -5.290  -4.272  24.392  0.00  0.00    -0.023 A 
HETATM   20  C   UNK     0      -6.399  -4.783  23.453  0.00  0.00     0.051 C 
BRANCH  17  21
HETATM   21  C   UNK     0      -4.514  -6.667  25.483  0.00  0.00     0.148 C 
BRANCH  21  22
HETATM   22  O   UNK     0      -5.145  -7.274  26.750  0.00  0.00    -0.346 OA
HETATM   23  HO  UNK     0      -5.943  -6.903  27.108  1.00  0.00     0.219 HD
ENDBRANCH  21  22
BRANCH  21  24
HETATM   24  N   UNK     0      -3.972  -7.589  24.374  0.00  0.00    -0.369 N 
HETATM   25  HN  UNK     0      -4.547  -7.797  23.557  1.00  0.00     0.161 HD
BRANCH  24  26
HETATM   26  C   UNK     0      -2.563  -8.196  24.499  0.00  0.00     0.141 C 
BRANCH  26  27
HETATM   27  C   UNK     0      -1.324  -7.281  24.459  0.00  0.00     0.136 C 
BRANCH  27  28
HETATM   28  N   UNK     0      -0.661  -6.941  23.111  0.00  0.00    -0.412 N 
BRANCH  28  29
HETATM   29  C   UNK     0       0.011  -5.570  22.907  0.00  0.00     0.112 C 
HETATM   30  C   UNK     0      -0.755  -4.436  22.200  0.00  0.00     0.026 C 
ENDBRANCH  28  29
BRANCH  28  31
HETATM   31  C   UNK     0      -0.669  -7.973  21.968  0.00  0.00     0.112 C 
HETATM   32  C   UNK     0       0.131  -7.700  20.680  0.00  0.00     0.026 C 
ENDBRANCH  28  31
ENDBRANCH  27  28
ENDBRANCH  26  27
ENDBRANCH  24  26
ENDBRANCH  21  24
ENDBRANCH  17  21
ENDBRANCH  12  13
ENDBRANCH   4  12
BRANCH   7  33
HETATM   33  O   UNK     0      -7.733  -1.501  21.390  0.00  0.00    -0.346 OA
HETATM   34  HO  UNK     0      -8.359  -1.709  20.705  1.00  0.00     0.219 HD
ENDBRANCH   7  33
TORSDOF 11
ENDMDL
MODEL 15
REMARK VINA RESULT:      -6.5      6.384     13.090
REMARK  11 active torsions:
REMARK  status: ('A' for Active; 'I' for Inactive)
REMARK    1  A    between atoms: O_2  and  C_21 
REMARK    2  A    between atoms: O_4  and  C_28 
REMARK    3  A    between atoms: N_6  and  C_13 
REMARK    4  A    between atoms: N_6  and  C_19 
REMARK    5  A    between atoms: N_6  and  C_20 
REMARK    6  A    between atoms: N_9  and  C_17 
REMARK    7  A    between atoms: N_9  and  C_21 
REMARK    8  A    between atoms: C_13  and  C_17 
REMARK    9  A    between atoms: C_14  and  C_21 
REMARK   10  A    between atoms: C_16  and  C_23 
REMARK   11  A    between atoms: C_22  and  C_23 
ROOT
HETATM    1  F   UNK     0       5.341   3.361   4.503  0.00  0.00    -0.215 F 
HETATM    2  N   UNK     0      -0.549   1.789   5.092  0.00  0.00    -0.340 N 
HETATM    3  HN  UNK     0      -1.442   2.246   4.903  1.00  0.00     0.168 HD
HETATM    4  C   UNK     0       1.138   0.107   5.778  0.00  0.00     0.007 A 
HETATM    5  C   UNK     0       1.886   1.348   5.285  0.00  0.00    -0.019 A 
HETATM    6  C   UNK     0       0.838   2.393   4.860  0.00  0.00     0.019 A 
HETATM    7  C   UNK     0      -0.364   0.378   5.659  0.00  0.00     0.147 A 
HETATM    8  C   UNK     0       3.388   1.671   5.166  0.00  0.00     0.106 A 
HETATM    9  C   UNK     0       1.291   3.761   4.315  0.00  0.00     0.064 A 
HETATM   10  C   UNK     0       3.840   3.038   4.622  0.00  0.00     0.076 A 
HETATM   11  C   UNK     0       2.792   4.083   4.196  0.00  0.00     0.072 A 
ENDROOT
BRANCH   4  12
HETATM   12  C   UNK     0       1.784  -1.190   6.301  0.00  0.00     0.101 C 
BRANCH  12  13
HETATM   13  C   UNK     0       3.081  -1.124   7.129  0.00  0.00     0.020 A 
HETATM   14  N   UNK     0       3.728   0.151   7.698  0.00  0.00    -0.362 N 
HETATM   15  C   UNK     0       5.005  -0.260   8.454  0.00  0.00     0.020 A 
HETATM   16  HN  UNK     0       3.374   1.102   7.593  1.00  0.00     0.165 HD
HETATM   17  C   UNK     0       5.148  -1.790   8.352  0.00  0.00     0.044 A 
HETATM   18  C   UNK     0       5.972   0.692   9.183  0.00  0.00     0.069 C 
HETATM   19  C   UNK     0       3.958  -2.324   7.534  0.00  0.00    -0.023 A 
HETATM   20  C   UNK     0       3.692  -3.799   7.181  0.00  0.00     0.051 C 
BRANCH  17  21
HETATM   21  C   UNK     0       6.280  -2.636   8.962  0.00  0.00     0.148 C 
BRANCH  21  22
HETATM   22  O   UNK     0       7.673  -2.648   8.305  0.00  0.00    -0.346 OA
HETATM   23  HO  UNK     0       8.448  -2.783   8.837  1.00  0.00     0.219 HD
ENDBRANCH  21  22
BRANCH  21  24
HETATM   24  N   UNK     0       6.019  -3.472  10.229  0.00  0.00    -0.369 N 
HETATM   25  HN  UNK     0       6.523  -3.261  11.092  1.00  0.00     0.161 HD
BRANCH  24  26
HETATM   26  C   UNK     0       4.999  -4.624  10.195  0.00  0.00     0.141 C 
BRANCH  26  27
HETATM   27  C   UNK     0       3.568  -4.401  10.719  0.00  0.00     0.136 C 
BRANCH  27  28
HETATM   28  N   UNK     0       2.846  -5.523  11.491  0.00  0.00    -0.412 N 
BRANCH  28  29
HETATM   29  C   UNK     0       2.656  -5.409  13.015  0.00  0.00     0.112 C 
HETATM   30  C   UNK     0       2.607  -6.682  13.881  0.00  0.00     0.026 C 
ENDBRANCH  28  29
BRANCH  28  31
HETATM   31  C   UNK     0       2.315  -6.756  10.737  0.00  0.00     0.112 C 
HETATM   32  C   UNK     0       0.912  -7.306  11.054  0.00  0.00     0.026 C 
ENDBRANCH  28  31
ENDBRANCH  27  28
ENDBRANCH  26  27
ENDBRANCH  24  26
ENDBRANCH  21  24
ENDBRANCH  17  21
ENDBRANCH  12  13
ENDBRANCH   4  12
BRANCH   7  33
HETATM   33  O   UNK     0      -1.492  -0.598   6.042  0.00  0.00    -0.346 OA
HETATM   34  HO  UNK     0      -2.162  -0.934   5.458  1.00  0.00     0.219 HD
ENDBRANCH   7  33
TORSDOF 11
ENDMDL
MODEL 16
REMARK VINA RESULT:      -6.4      9.827     11.671
REMARK  11 active torsions:
REMARK  status: ('A' for Active; 'I' for Inactive)
REMARK    1  A    between atoms: O_2  and  C_21 
REMARK    2  A    between atoms: O_4  and  C_28 
REMARK    3  A    between atoms: N_6  and  C_13 
REMARK    4  A    between atoms: N_6  and  C_19 
REMARK    5  A    between atoms: N_6  and  C_20 
REMARK    6  A    between atoms: N_9  and  C_17 
REMARK    7  A    between atoms: N_9  and  C_21 
REMARK    8  A    between atoms: C_13  and  C_17 
REMARK    9  A    between atoms: C_14  and  C_21 
REMARK   10  A    between atoms: C_16  and  C_23 
REMARK   11  A    between atoms: C_22  and  C_23 
ROOT
HETATM    1  F   UNK     0      -4.402  -9.422  24.491  0.00  0.00    -0.215 F 
HETATM    2  N   UNK     0      -0.396  -4.926  25.612  0.00  0.00    -0.340 N 
HETATM    3  HN  UNK     0       0.619  -4.869  25.705  1.00  0.00     0.168 HD
HETATM    4  C   UNK     0      -2.793  -4.301  25.527  0.00  0.00     0.007 A 
HETATM    5  C   UNK     0      -2.692  -5.807  25.269  0.00  0.00    -0.019 A 
HETATM    6  C   UNK     0      -1.202  -6.195  25.322  0.00  0.00     0.019 A 
HETATM    7  C   UNK     0      -1.378  -3.758  25.738  0.00  0.00     0.147 A 
HETATM    8  C   UNK     0      -3.758  -6.883  24.992  0.00  0.00     0.106 A 
HETATM    9  C   UNK     0      -0.780  -7.659  25.098  0.00  0.00     0.064 A 
HETATM   10  C   UNK     0      -3.336  -8.346  24.768  0.00  0.00     0.076 A 
HETATM   11  C   UNK     0      -1.846  -8.734  24.821  0.00  0.00     0.072 A 
ENDROOT
BRANCH   4  12
HETATM   12  C   UNK     0      -4.093  -3.476  25.567  0.00  0.00     0.101 C 
BRANCH  12  13
HETATM   13  C   UNK     0      -4.315  -2.339  24.553  0.00  0.00     0.020 A 
HETATM   14  N   UNK     0      -3.623  -0.964  24.570  0.00  0.00    -0.362 N 
HETATM   15  C   UNK     0      -4.148  -0.152  23.371  0.00  0.00     0.020 A 
HETATM   16  HN  UNK     0      -2.938  -0.646  25.255  1.00  0.00     0.165 HD
HETATM   17  C   UNK     0      -5.165  -1.026  22.612  0.00  0.00     0.044 A 
HETATM   18  C   UNK     0      -3.730   1.282  22.996  0.00  0.00     0.069 C 
HETATM   19  C   UNK     0      -5.267  -2.377  23.343  0.00  0.00    -0.023 A 
HETATM   20  C   UNK     0      -6.166  -3.560  22.936  0.00  0.00     0.051 C 
BRANCH  17  21
HETATM   21  C   UNK     0      -5.941  -0.620  21.347  0.00  0.00     0.148 C 
BRANCH  21  22
HETATM   22  O   UNK     0      -7.330   0.035  21.472  0.00  0.00    -0.346 OA
HETATM   23  HO  UNK     0      -7.798   0.001  22.298  1.00  0.00     0.219 HD
ENDBRANCH  21  22
BRANCH  21  24
HETATM   24  N   UNK     0      -5.329  -0.868  19.955  0.00  0.00    -0.369 N 
HETATM   25  HN  UNK     0      -5.933  -1.110  19.168  1.00  0.00     0.161 HD
BRANCH  24  26
HETATM   26  C   UNK     0      -3.807  -0.753  19.752  0.00  0.00     0.141 C 
BRANCH  26  27
HETATM   27  C   UNK     0      -2.938  -2.024  19.707  0.00  0.00     0.136 C 
BRANCH  27  28
HETATM   28  N   UNK     0      -1.805  -2.219  20.733  0.00  0.00    -0.412 N 
BRANCH  28  29
HETATM   29  C   UNK     0      -1.941  -3.283  21.837  0.00  0.00     0.112 C 
HETATM   30  C   UNK     0      -0.774  -4.244  22.128  0.00  0.00     0.026 C 
ENDBRANCH  28  29
BRANCH  28  31
HETATM   31  C   UNK     0      -0.537  -1.349  20.653  0.00  0.00     0.112 C 
HETATM   32  C   UNK     0      -0.311  -0.222  21.679  0.00  0.00     0.026 C 
ENDBRANCH  28  31
ENDBRANCH  27  28
ENDBRANCH  26  27
ENDBRANCH  24  26
ENDBRANCH  21  24
ENDBRANCH  17  21
ENDBRANCH  12  13
ENDBRANCH   4  12
BRANCH   7  33
HETATM   33  O   UNK     0      -1.006  -2.292  26.028  0.00  0.00    -0.346 OA
HETATM   34  HO  UNK     0      -0.146  -1.902  25.919  1.00  0.00     0.219 HD
ENDBRANCH   7  33
TORSDOF 11
ENDMDL
MODEL 17
REMARK VINA RESULT:      -6.3      9.035     12.774
REMARK  11 active torsions:
REMARK  status: ('A' for Active; 'I' for Inactive)
REMARK    1  A    between atoms: O_2  and  C_21 
REMARK    2  A    between atoms: O_4  and  C_28 
REMARK    3  A    between atoms: N_6  and  C_13 
REMARK    4  A    between atoms: N_6  and  C_19 
REMARK    5  A    between atoms: N_6  and  C_20 
REMARK    6  A    between atoms: N_9  and  C_17 
REMARK    7  A    between atoms: N_9  and  C_21 
REMARK    8  A    between atoms: C_13  and  C_17 
REMARK    9  A    between atoms: C_14  and  C_21 
REMARK   10  A    between atoms: C_16  and  C_23 
REMARK   11  A    between atoms: C_22  and  C_23 
ROOT
HETATM    1  F   UNK     0       0.260  -1.900  21.813  0.00  0.00    -0.215 F 
HETATM    2  N   UNK     0      -5.491  -0.941  19.935  0.00  0.00    -0.340 N 
HETATM    3  HN  UNK     0      -5.925  -0.640  19.062  1.00  0.00     0.168 HD
HETATM    4  C   UNK     0      -5.183  -1.691  22.277  0.00  0.00     0.007 A 
HETATM    5  C   UNK     0      -3.798  -1.581  21.634  0.00  0.00    -0.019 A 
HETATM    6  C   UNK     0      -3.990  -1.114  20.179  0.00  0.00     0.019 A 
HETATM    7  C   UNK     0      -6.227  -1.297  21.230  0.00  0.00     0.147 A 
HETATM    8  C   UNK     0      -2.381  -1.842  22.179  0.00  0.00     0.106 A 
HETATM    9  C   UNK     0      -2.764  -0.910  19.269  0.00  0.00     0.064 A 
HETATM   10  C   UNK     0      -1.157  -1.638  21.269  0.00  0.00     0.076 A 
HETATM   11  C   UNK     0      -1.348  -1.172  19.814  0.00  0.00     0.072 A 
ENDROOT
BRANCH   4  12
HETATM   12  C   UNK     0      -5.475  -2.124  23.726  0.00  0.00     0.101 C 
BRANCH  12  13
HETATM   13  C   UNK     0      -5.733  -3.608  24.050  0.00  0.00     0.020 A 
HETATM   14  N   UNK     0      -7.039  -4.379  23.782  0.00  0.00    -0.362 N 
HETATM   15  C   UNK     0      -6.842  -5.828  24.264  0.00  0.00     0.020 A 
HETATM   16  HN  UNK     0      -7.885  -3.997  23.360  1.00  0.00     0.165 HD
HETATM   17  C   UNK     0      -5.416  -5.953  24.830  0.00  0.00     0.044 A 
HETATM   18  C   UNK     0      -7.890  -6.955  24.193  0.00  0.00     0.069 C 
HETATM   19  C   UNK     0      -4.730  -4.581  24.697  0.00  0.00    -0.023 A 
HETATM   20  C   UNK     0      -3.294  -4.240  25.136  0.00  0.00     0.051 C 
BRANCH  17  21
HETATM   21  C   UNK     0      -4.786  -7.226  25.424  0.00  0.00     0.148 C 
BRANCH  21  22
HETATM   22  O   UNK     0      -5.678  -8.282  26.103  0.00  0.00    -0.346 OA
HETATM   23  HO  UNK     0      -5.358  -9.169  26.220  1.00  0.00     0.219 HD
ENDBRANCH  21  22
BRANCH  21  24
HETATM   24  N   UNK     0      -3.263  -7.443  25.339  0.00  0.00    -0.369 N 
HETATM   25  HN  UNK     0      -2.675  -7.259  26.153  1.00  0.00     0.161 HD
BRANCH  24  26
HETATM   26  C   UNK     0      -2.628  -7.937  24.026  0.00  0.00     0.141 C 
BRANCH  26  27
HETATM   27  C   UNK     0      -1.102  -7.862  23.833  0.00  0.00     0.136 C 
BRANCH  27  28
HETATM   28  N   UNK     0      -0.509  -7.763  22.415  0.00  0.00    -0.412 N 
BRANCH  28  29
HETATM   29  C   UNK     0       0.067  -9.018  21.732  0.00  0.00     0.112 C 
HETATM   30  C   UNK     0       1.001  -8.871  20.516  0.00  0.00     0.026 C 
ENDBRANCH  28  29
BRANCH  28  31
HETATM   31  C   UNK     0      -0.493  -6.410  21.681  0.00  0.00     0.112 C 
HETATM   32  C   UNK     0       0.111  -5.169  22.367  0.00  0.00     0.026 C 
ENDBRANCH  28  31
ENDBRANCH  27  28
ENDBRANCH  26  27
ENDBRANCH  24  26
ENDBRANCH  21  24
ENDBRANCH  17  21
ENDBRANCH  12  13
ENDBRANCH   4  12
BRANCH   7  33
HETATM   33  O   UNK     0      -7.752  -1.264  21.441  0.00  0.00    -0.346 OA
HETATM   34  HO  UNK     0      -8.367  -1.938  21.177  1.00  0.00     0.219 HD
ENDBRANCH   7  33
TORSDOF 11
ENDMDL
MODEL 18
REMARK VINA RESULT:      -6.1      9.800     12.346
REMARK  11 active torsions:
REMARK  status: ('A' for Active; 'I' for Inactive)
REMARK    1  A    between atoms: O_2  and  C_21 
REMARK    2  A    between atoms: O_4  and  C_28 
REMARK    3  A    between atoms: N_6  and  C_13 
REMARK    4  A    between atoms: N_6  and  C_19 
REMARK    5  A    between atoms: N_6  and  C_20 
REMARK    6  A    between atoms: N_9  and  C_17 
REMARK    7  A    between atoms: N_9  and  C_21 
REMARK    8  A    between atoms: C_13  and  C_17 
REMARK    9  A    between atoms: C_14  and  C_21 
REMARK   10  A    between atoms: C_16  and  C_23 
REMARK   11  A    between atoms: C_22  and  C_23 
ROOT
HETATM    1  F   UNK     0      -6.535  -6.630  26.483  0.00  0.00    -0.215 F 
HETATM    2  N   UNK     0      -1.125  -7.017  23.637  0.00  0.00    -0.340 N 
HETATM    3  HN  UNK     0      -0.580  -7.773  23.220  1.00  0.00     0.168 HD
HETATM    4  C   UNK     0      -1.831  -4.770  24.410  0.00  0.00     0.007 A 
HETATM    5  C   UNK     0      -2.930  -5.765  24.792  0.00  0.00    -0.019 A 
HETATM    6  C   UNK     0      -2.492  -7.161  24.312  0.00  0.00     0.019 A 
HETATM    7  C   UNK     0      -0.718  -5.542  23.697  0.00  0.00     0.147 A 
HETATM    8  C   UNK     0      -4.278  -5.588  25.516  0.00  0.00     0.106 A 
HETATM    9  C   UNK     0      -3.401  -8.380  24.556  0.00  0.00     0.064 A 
HETATM   10  C   UNK     0      -5.187  -6.807  25.759  0.00  0.00     0.076 A 
HETATM   11  C   UNK     0      -4.748  -8.203  25.279  0.00  0.00     0.072 A 
ENDROOT
BRANCH   4  12
HETATM   12  C   UNK     0      -1.843  -3.256  24.692  0.00  0.00     0.101 C 
BRANCH  12  13
HETATM   13  C   UNK     0      -1.997  -2.257  23.530  0.00  0.00     0.020 A 
HETATM   14  N   UNK     0      -2.085  -2.614  22.036  0.00  0.00    -0.362 N 
HETATM   15  C   UNK     0      -2.233  -1.303  21.242  0.00  0.00     0.020 A 
HETATM   16  HN  UNK     0      -2.052  -3.554  21.640  1.00  0.00     0.165 HD
HETATM   17  C   UNK     0      -2.236  -0.135  22.246  0.00  0.00     0.044 A 
HETATM   18  C   UNK     0      -2.356  -1.180  19.711  0.00  0.00     0.069 C 
HETATM   19  C   UNK     0      -2.090  -0.725  23.660  0.00  0.00    -0.023 A 
HETATM   20  C   UNK     0      -2.045   0.076  24.975  0.00  0.00     0.051 C 
BRANCH  17  21
HETATM   21  C   UNK     0      -2.362   1.359  21.896  0.00  0.00     0.148 C 
BRANCH  21  22
HETATM   22  O   UNK     0      -1.106   2.174  21.536  0.00  0.00    -0.346 OA
HETATM   23  HO  UNK     0      -0.865   2.297  20.625  1.00  0.00     0.219 HD
ENDBRANCH  21  22
BRANCH  21  24
HETATM   24  N   UNK     0      -3.744   2.038  21.908  0.00  0.00    -0.369 N 
HETATM   25  HN  UNK     0      -3.873   2.925  22.396  1.00  0.00     0.161 HD
BRANCH  24  26
HETATM   26  C   UNK     0      -4.932   1.378  21.183  0.00  0.00     0.141 C 
BRANCH  26  27
HETATM   27  C   UNK     0      -6.217   1.040  21.962  0.00  0.00     0.136 C 
BRANCH  27  28
HETATM   28  N   UNK     0      -6.357  -0.325  22.662  0.00  0.00    -0.412 N 
BRANCH  28  29
HETATM   29  C   UNK     0      -6.807  -1.560  21.859  0.00  0.00     0.112 C 
HETATM   30  C   UNK     0      -8.129  -2.266  22.209  0.00  0.00     0.026 C 
ENDBRANCH  28  29
BRANCH  28  31
HETATM   31  C   UNK     0      -6.048  -0.454  24.165  0.00  0.00     0.112 C 
HETATM   32  C   UNK     0      -5.461  -1.767  24.720  0.00  0.00     0.026 C 
ENDBRANCH  28  31
ENDBRANCH  27  28
ENDBRANCH  26  27
ENDBRANCH  24  26
ENDBRANCH  21  24
ENDBRANCH  17  21
ENDBRANCH  12  13
ENDBRANCH   4  12
BRANCH   7  33
HETATM   33  O   UNK     0       0.585  -4.941  23.139  0.00  0.00    -0.346 OA
HETATM   34  HO  UNK     0       0.673  -4.094  22.717  1.00  0.00     0.219 HD
ENDBRANCH   7  33
TORSDOF 11
ENDMDL
MODEL 19
REMARK VINA RESULT:      -6.0      9.754     12.693
REMARK  11 active torsions:
REMARK  status: ('A' for Active; 'I' for Inactive)
REMARK    1  A    between atoms: O_2  and  C_21 
REMARK    2  A    between atoms: O_4  and  C_28 
REMARK    3  A    between atoms: N_6  and  C_13 
REMARK    4  A    between atoms: N_6  and  C_19 
REMARK    5  A    between atoms: N_6  and  C_20 
REMARK    6  A    between atoms: N_9  and  C_17 
REMARK    7  A    between atoms: N_9  and  C_21 
REMARK    8  A    between atoms: C_13  and  C_17 
REMARK    9  A    between atoms: C_14  and  C_21 
REMARK   10  A    between atoms: C_16  and  C_23 
REMARK   11  A    between atoms: C_22  and  C_23 
ROOT
HETATM    1  F   UNK     0      -2.848  -9.537  25.783  0.00  0.00    -0.215 F 
HETATM    2  N   UNK     0       0.322  -5.832  22.075  0.00  0.00    -0.340 N 
HETATM    3  HN  UNK     0       1.090  -5.955  21.415  1.00  0.00     0.168 HD
HETATM    4  C   UNK     0      -1.470  -4.795  23.439  0.00  0.00     0.007 A 
HETATM    5  C   UNK     0      -1.441  -6.290  23.762  0.00  0.00    -0.019 A 
HETATM    6  C   UNK     0      -0.328  -6.935  22.915  0.00  0.00     0.019 A 
HETATM    7  C   UNK     0      -0.383  -4.511  22.399  0.00  0.00     0.147 A 
HETATM    8  C   UNK     0      -2.281  -7.158  24.718  0.00  0.00     0.106 A 
HETATM    9  C   UNK     0      -0.055  -8.447  23.024  0.00  0.00     0.064 A 
HETATM   10  C   UNK     0      -2.008  -8.669  24.827  0.00  0.00     0.076 A 
HETATM   11  C   UNK     0      -0.895  -9.313  23.980  0.00  0.00     0.072 A 
ENDROOT
BRANCH   4  12
HETATM   12  C   UNK     0      -2.426  -3.755  24.053  0.00  0.00     0.101 C 
BRANCH  12  13
HETATM   13  C   UNK     0      -2.944  -2.584  23.196  0.00  0.00     0.020 A 
HETATM   14  N   UNK     0      -3.973  -2.682  22.056  0.00  0.00    -0.362 N 
HETATM   15  C   UNK     0      -4.187  -1.268  21.485  0.00  0.00     0.020 A 
HETATM   16  HN  UNK     0      -4.432  -3.534  21.734  1.00  0.00     0.165 HD
HETATM   17  C   UNK     0      -3.290  -0.295  22.273  0.00  0.00     0.044 A 
HETATM   18  C   UNK     0      -5.132  -0.892  20.329  0.00  0.00     0.069 C 
HETATM   19  C   UNK     0      -2.522  -1.109  23.331  0.00  0.00    -0.023 A 
HETATM   20  C   UNK     0      -1.509  -0.546  24.346  0.00  0.00     0.051 C 
BRANCH  17  21
HETATM   21  C   UNK     0      -3.181   1.223  22.044  0.00  0.00     0.148 C 
BRANCH  21  22
HETATM   22  O   UNK     0      -1.927   1.813  21.372  0.00  0.00    -0.346 OA
HETATM   23  HO  UNK     0      -1.202   2.118  21.905  1.00  0.00     0.219 HD
ENDBRANCH  21  22
BRANCH  21  24
HETATM   24  N   UNK     0      -4.326   2.153  22.487  0.00  0.00    -0.369 N 
HETATM   25  HN  UNK     0      -4.397   2.447  23.462  1.00  0.00     0.161 HD
BRANCH  24  26
HETATM   26  C   UNK     0      -5.365   2.638  21.459  0.00  0.00     0.141 C 
BRANCH  26  27
HETATM   27  C   UNK     0      -6.777   3.040  21.923  0.00  0.00     0.136 C 
BRANCH  27  28
HETATM   28  N   UNK     0      -7.182   2.865  23.399  0.00  0.00    -0.412 N 
BRANCH  28  29
HETATM   29  C   UNK     0      -6.977   4.021  24.396  0.00  0.00     0.112 C 
HETATM   30  C   UNK     0      -5.696   4.083  25.249  0.00  0.00     0.026 C 
ENDBRANCH  28  29
BRANCH  28  31
HETATM   31  C   UNK     0      -7.792   1.535  23.877  0.00  0.00     0.112 C 
HETATM   32  C   UNK     0      -7.684   0.277  22.994  0.00  0.00     0.026 C 
ENDBRANCH  28  31
ENDBRANCH  27  28
ENDBRANCH  26  27
ENDBRANCH  24  26
ENDBRANCH  21  24
ENDBRANCH  17  21
ENDBRANCH  12  13
ENDBRANCH   4  12
BRANCH   7  33
HETATM   33  O   UNK     0      -0.056  -3.138  21.784  0.00  0.00    -0.346 OA
HETATM   34  HO  UNK     0       0.594  -2.968  21.112  1.00  0.00     0.219 HD
ENDBRANCH   7  33
TORSDOF 11
ENDMDL
MODEL 20
REMARK VINA RESULT:      -5.9      9.277     12.457
REMARK  11 active torsions:
REMARK  status: ('A' for Active; 'I' for Inactive)
REMARK    1  A    between atoms: O_2  and  C_21 
REMARK    2  A    between atoms: O_4  and  C_28 
REMARK    3  A    between atoms: N_6  and  C_13 
REMARK    4  A    between atoms: N_6  and  C_19 
REMARK    5  A    between atoms: N_6  and  C_20 
REMARK    6  A    between atoms: N_9  and  C_17 
REMARK    7  A    between atoms: N_9  and  C_21 
REMARK    8  A    between atoms: C_13  and  C_17 
REMARK    9  A    between atoms: C_14  and  C_21 
REMARK   10  A    between atoms: C_16  and  C_23 
REMARK   11  A    between atoms: C_22  and  C_23 
ROOT
HETATM    1  F   UNK     0      -1.423  -6.493  20.061  0.00  0.00    -0.215 F 
HETATM    2  N   UNK     0       1.238 -10.550  23.799  0.00  0.00    -0.340 N 
HETATM    3  HN  UNK     0       1.947 -11.276  23.691  1.00  0.00     0.168 HD
HETATM    4  C   UNK     0      -0.464  -9.048  24.797  0.00  0.00     0.007 A 
HETATM    5  C   UNK     0      -0.343  -8.699  23.311  0.00  0.00    -0.019 A 
HETATM    6  C   UNK     0       0.714  -9.632  22.692  0.00  0.00     0.019 A 
HETATM    7  C   UNK     0       0.510 -10.190  25.098  0.00  0.00     0.147 A 
HETATM    8  C   UNK     0      -1.055  -7.652  22.434  0.00  0.00     0.106 A 
HETATM    9  C   UNK     0       1.059  -9.518  21.195  0.00  0.00     0.064 A 
HETATM   10  C   UNK     0      -0.710  -7.539  20.938  0.00  0.00     0.076 A 
HETATM   11  C   UNK     0       0.347  -8.472  20.318  0.00  0.00     0.072 A 
ENDROOT
BRANCH   4  12
HETATM   12  C   UNK     0      -1.403  -8.370  25.812  0.00  0.00     0.101 C 
BRANCH  12  13
HETATM   13  C   UNK     0      -1.961  -6.964  25.524  0.00  0.00     0.020 A 
HETATM   14  N   UNK     0      -1.210  -5.634  25.719  0.00  0.00    -0.362 N 
HETATM   15  C   UNK     0      -2.154  -4.490  25.306  0.00  0.00     0.020 A 
HETATM   16  HN  UNK     0      -0.255  -5.530  26.062  1.00  0.00     0.165 HD
HETATM   17  C   UNK     0      -3.488  -5.112  24.855  0.00  0.00     0.044 A 
HETATM   18  C   UNK     0      -1.821  -2.986  25.338  0.00  0.00     0.069 C 
HETATM   19  C   UNK     0      -3.369  -6.641  24.990  0.00  0.00    -0.023 A 
HETATM   20  C   UNK     0      -4.466  -7.668  24.650  0.00  0.00     0.051 C 
BRANCH  17  21
HETATM   21  C   UNK     0      -4.724  -4.341  24.357  0.00  0.00     0.148 C 
BRANCH  21  22
HETATM   22  O   UNK     0      -5.954  -4.184  25.271  0.00  0.00    -0.346 OA
HETATM   23  HO  UNK     0      -5.981  -4.628  26.111  1.00  0.00     0.219 HD
ENDBRANCH  21  22
BRANCH  21  24
HETATM   24  N   UNK     0      -4.731  -3.725  22.946  0.00  0.00    -0.369 N 
HETATM   25  HN  UNK     0      -4.943  -4.308  22.135  1.00  0.00     0.161 HD
BRANCH  24  26
HETATM   26  C   UNK     0      -4.416  -2.229  22.757  0.00  0.00     0.141 C 
BRANCH  26  27
HETATM   27  C   UNK     0      -5.103  -1.180  23.651  0.00  0.00     0.136 C 
BRANCH  27  28
HETATM   28  N   UNK     0      -6.211  -0.280  23.071  0.00  0.00    -0.412 N 
BRANCH  28  29
HETATM   29  C   UNK     0      -7.685  -0.719  23.160  0.00  0.00     0.112 C 
HETATM   30  C   UNK     0      -8.144  -1.648  24.299  0.00  0.00     0.026 C 
ENDBRANCH  28  29
BRANCH  28  31
HETATM   31  C   UNK     0      -5.844   1.058  22.403  0.00  0.00     0.112 C 
HETATM   32  C   UNK     0      -5.489   1.098  20.904  0.00  0.00     0.026 C 
ENDBRANCH  28  31
ENDBRANCH  27  28
ENDBRANCH  26  27
ENDBRANCH  24  26
ENDBRANCH  21  24
ENDBRANCH  17  21
ENDBRANCH  12  13
ENDBRANCH   4  12
BRANCH   7  33
HETATM   33  O   UNK     0       0.723 -10.860  26.469  0.00  0.00    -0.346 OA
HETATM   34  HO  UNK     0       0.435 -10.518  27.307  1.00  0.00     0.219 HD
ENDBRANCH   7  33
TORSDOF 11
ENDMDL
