REMARK  11 active torsions:
REMARK  status: ('A' for Active; 'I' for Inactive)
REMARK    1  A    between atoms: O_2  and  C_21 
REMARK    2  A    between atoms: O_4  and  C_28 
REMARK    3  A    between atoms: N_6  and  C_13 
REMARK    4  A    between atoms: N_6  and  C_19 
REMARK    5  A    between atoms: N_6  and  C_20 
REMARK    6  A    between atoms: N_9  and  C_17 
REMARK    7  A    between atoms: N_9  and  C_21 
REMARK    8  A    between atoms: C_13  and  C_17 
REMARK    9  A    between atoms: C_14  and  C_21 
REMARK   10  A    between atoms: C_16  and  C_23 
REMARK   11  A    between atoms: C_22  and  C_23 
ROOT
HETATM    1  F   UNK     0       3.080  -2.213   0.000  0.00  0.00    -0.215 F 
HETATM    2  N   UNK     0       8.538  -4.993   0.000  0.00  0.00    -0.340 N 
HETATM    3  HN  UNK     0       8.855  -5.963   0.000  1.00  0.00     0.168 HD
HETATM    4  C   UNK     0       8.538  -2.514   0.000  0.00  0.00     0.007 A 
HETATM    5  C   UNK     0       7.081  -2.983   0.000  0.00  0.00    -0.019 A 
HETATM    6  C   UNK     0       7.081  -4.523   0.000  0.00  0.00     0.019 A 
HETATM    7  C   UNK     0       9.437  -3.753   0.000  0.00  0.00     0.147 A 
HETATM    8  C   UNK     0       5.747  -2.213   0.000  0.00  0.00     0.106 A 
HETATM    9  C   UNK     0       5.747  -5.293   0.000  0.00  0.00     0.064 A 
HETATM   10  C   UNK     0       4.414  -2.983   0.000  0.00  0.00     0.076 A 
HETATM   11  C   UNK     0       4.414  -4.523   0.000  0.00  0.00     0.072 A 
ENDROOT
BRANCH   4  12
HETATM   12  C   UNK     0       9.017  -1.050   0.000  0.00  0.00     0.101 C 
BRANCH  12  13
HETATM   13  C   UNK     0      10.524  -0.733   0.000  0.00  0.00     0.020 A 
HETATM   14  N   UNK     0      11.666  -1.765   0.000  0.00  0.00    -0.362 N 
HETATM   15  C   UNK     0      13.001  -0.997   0.000  0.00  0.00     0.020 A 
HETATM   16  HN  UNK     0      11.558  -2.779   0.000  1.00  0.00     0.165 HD
HETATM   17  C   UNK     0      12.684   0.510   0.000  0.00  0.00     0.044 A 
HETATM   18  C   UNK     0      14.407  -1.626   0.000  0.00  0.00     0.069 C 
HETATM   19  C   UNK     0      11.153   0.673   0.000  0.00  0.00    -0.023 A 
HETATM   20  C   UNK     0      10.385   2.008   0.000  0.00  0.00     0.051 C 
BRANCH  17  21
HETATM   21  C   UNK     0      13.716   1.652   0.000  0.00  0.00     0.148 C 
BRANCH  21  22
HETATM   22  O   UNK     0      13.243   3.118   0.000  0.00  0.00    -0.346 OA
HETATM   23  HO  UNK     0      12.314   3.317   0.000  1.00  0.00     0.219 HD
ENDBRANCH  21  22
BRANCH  21  24
HETATM   24  N   UNK     0      15.222   1.329   0.000  0.00  0.00    -0.369 N 
HETATM   25  HN  UNK     0      15.536   0.358   0.000  1.00  0.00     0.161 HD
BRANCH  24  26
HETATM   26  C   UNK     0      16.254   2.472   0.000  0.00  0.00     0.141 C 
BRANCH  26  27
HETATM   27  C   UNK     0      17.760   2.149   0.000  0.00  0.00     0.136 C 
BRANCH  27  28
HETATM   28  N   UNK     0      18.793   3.292   0.000  0.00  0.00    -0.412 N 
BRANCH  28  29
HETATM   29  C   UNK     0      20.299   2.969   0.000  0.00  0.00     0.112 C 
HETATM   30  C   UNK     0      21.331   4.112   0.000  0.00  0.00     0.026 C 
ENDBRANCH  28  29
BRANCH  28  31
HETATM   31  C   UNK     0      18.319   4.757   0.000  0.00  0.00     0.112 C 
HETATM   32  C   UNK     0      19.352   5.900   0.000  0.00  0.00     0.026 C 
ENDBRANCH  28  31
ENDBRANCH  27  28
ENDBRANCH  26  27
ENDBRANCH  24  26
ENDBRANCH  21  24
ENDBRANCH  17  21
ENDBRANCH  12  13
ENDBRANCH   4  12
BRANCH   7  33
HETATM   33  O   UNK     0      10.977  -3.753   0.000  0.00  0.00    -0.346 OA
HETATM   34  HO  UNK     0      11.535  -2.984   0.000  1.00  0.00     0.219 HD
ENDBRANCH   7  33
TORSDOF 11
