MODEL 13
REMARK VINA RESULT:      -6.2     11.030     14.448
REMARK  7 active torsions:
REMARK  status: ('A' for Active; 'I' for Inactive)
REMARK    1  A    between atoms: N_1  and  C_5 
REMARK    2  A    between atoms: N_1  and  C_6 
REMARK    3  A    between atoms: C_9  and  N_23 
REMARK    4  A    between atoms: C_10  and  N_23 
REMARK    5  A    between atoms: C_15  and  O_36 
REMARK    6  A    between atoms: O_18  and  C_19 
REMARK    7  A    between atoms: C_34  and  O_35 
ROOT
HETATM    1  N   UNK     0      -0.377  -3.511  21.840  0.00  0.00    -0.199 N 
HETATM    2  HN  UNK     0       0.540  -3.082  21.722  1.00  0.00     0.183 HD
ENDROOT
BRANCH   1   3
HETATM    3  C   UNK     0      -0.498  -4.912  22.467  0.00  0.00     0.016 A 
HETATM    4  C   UNK     0      -0.808  -5.060  23.968  0.00  0.00     0.120 A 
HETATM    5  C   UNK     0      -0.929  -6.461  24.595  0.00  0.00     0.086 A 
HETATM    6  C   UNK     0      -0.739  -7.715  23.721  0.00  0.00     0.127 A 
HETATM    7  C   UNK     0      -0.429  -7.567  22.220  0.00  0.00     0.086 A 
HETATM    8  C   UNK     0      -0.308  -6.166  21.593  0.00  0.00     0.120 A 
BRANCH   5   9
HETATM    9  O   UNK     0      -1.239  -6.609  26.096  0.00  0.00    -0.357 OA
HETATM   10  C   UNK     0      -1.192  -5.376  27.017  0.00  0.00     0.209 C 
ENDBRANCH   5   9
BRANCH   6  11
HETATM   11  O   UNK     0      -0.860  -9.116  24.348  0.00  0.00    -0.351 OA
HETATM   12  C   UNK     0       0.373  -9.783  24.986  0.00  0.00     0.210 C 
ENDBRANCH   6  11
BRANCH   7  13
HETATM   13  O   UNK     0      -0.239  -8.821  21.346  0.00  0.00    -0.357 OA
HETATM   14  C   UNK     0       0.478  -8.711  19.988  0.00  0.00     0.209 C 
ENDBRANCH   7  13
ENDBRANCH   1   3
BRANCH   1  15
HETATM   15  C   UNK     0      -1.643  -2.757  21.390  0.00  0.00     0.679 A 
HETATM   16  N   UNK     0      -2.985  -3.012  22.102  0.00  0.00    -0.180 N 
HETATM   17  C   UNK     0      -4.250  -2.259  21.653  0.00  0.00     0.100 A 
HETATM   18  HN  UNK     0      -3.035  -3.680  22.871  1.00  0.00     0.185 HD
HETATM   19  C   UNK     0      -4.174  -1.249  20.492  0.00  0.00     0.097 A 
HETATM   20  C   UNK     0      -2.832  -0.994  19.780  0.00  0.00     0.145 A 
HETATM   21  N   UNK     0      -1.566  -1.748  20.230  0.00  0.00    -0.226 N 
HETATM   22  HN  UNK     0      -0.678  -1.579  19.759  1.00  0.00     0.177 HD
BRANCH  17  23
HETATM   23  N   UNK     0      -5.591  -2.514  22.364  0.00  0.00    -0.347 N 
HETATM   24  C   UNK     0      -6.756  -1.522  22.191  0.00  0.00     0.157 C 
BRANCH  23  25
HETATM   25  C   UNK     0      -5.769  -3.762  23.249  0.00  0.00    -0.004 A 
HETATM   26  C   UNK     0      -6.920  -4.747  22.970  0.00  0.00     0.111 A 
HETATM   27  C   UNK     0      -7.096  -5.994  23.855  0.00  0.00     0.039 A 
HETATM   28  C   UNK     0      -6.122  -6.258  25.018  0.00  0.00    -0.010 A 
HETATM   29  N   UNK     0      -8.127  -7.139  23.828  0.00  0.00    -0.304 N 
HETATM   30  C   UNK     0      -4.972  -5.274  25.297  0.00  0.00     0.048 A 
HETATM   31  C   UNK     0      -6.551  -7.565  25.711  0.00  0.00     0.030 A 
HETATM   32  C   UNK     0      -4.795  -4.026  24.413  0.00  0.00     0.057 A 
HETATM   33  C   UNK     0      -5.862  -8.214  26.925  0.00  0.00     0.070 C 
HETATM   34  N   UNK     0      -7.789  -8.110  24.975  0.00  0.00    -0.304 N 
HETATM   35  HN  UNK     0      -8.297  -8.963  25.207  1.00  0.00     0.186 HD
HETATM   36  HN  UNK     0      -8.897  -7.237  23.167  1.00  0.00     0.186 HD
ENDBRANCH  23  25
ENDBRANCH  17  23
ENDBRANCH   1  15
TORSDOF 7
ENDMDL
