MODEL 16
REMARK VINA RESULT:      -6.0     11.441     15.295
REMARK  7 active torsions:
REMARK  status: ('A' for Active; 'I' for Inactive)
REMARK    1  A    between atoms: N_1  and  C_5 
REMARK    2  A    between atoms: N_1  and  C_6 
REMARK    3  A    between atoms: C_9  and  N_23 
REMARK    4  A    between atoms: C_10  and  N_23 
REMARK    5  A    between atoms: C_15  and  O_36 
REMARK    6  A    between atoms: O_18  and  C_19 
REMARK    7  A    between atoms: C_34  and  O_35 
ROOT
HETATM    1  N   UNK     0      -1.773  -3.719  21.134  0.00  0.00    -0.199 N 
HETATM    2  HN  UNK     0      -2.342  -3.925  20.313  1.00  0.00     0.183 HD
ENDROOT
BRANCH   1   3
HETATM    3  C   UNK     0      -1.273  -4.865  22.033  0.00  0.00     0.016 A 
HETATM    4  C   UNK     0      -1.044  -4.621  23.536  0.00  0.00     0.120 A 
HETATM    5  C   UNK     0      -0.544  -5.768  24.435  0.00  0.00     0.086 A 
HETATM    6  C   UNK     0      -0.274  -7.158  23.830  0.00  0.00     0.127 A 
HETATM    7  C   UNK     0      -0.503  -7.402  22.327  0.00  0.00     0.086 A 
HETATM    8  C   UNK     0      -1.002  -6.256  21.428  0.00  0.00     0.120 A 
BRANCH   5   9
HETATM    9  O   UNK     0      -0.315  -5.524  25.937  0.00  0.00    -0.357 OA
HETATM   10  C   UNK     0       1.114  -5.321  26.475  0.00  0.00     0.209 C 
ENDBRANCH   5   9
BRANCH   6  11
HETATM   11  O   UNK     0       0.226  -8.305  24.729  0.00  0.00    -0.351 OA
HETATM   12  C   UNK     0      -0.743  -9.419  25.165  0.00  0.00     0.210 C 
ENDBRANCH   6  11
BRANCH   7  13
HETATM   13  O   UNK     0      -0.232  -8.792  21.723  0.00  0.00    -0.357 OA
HETATM   14  C   UNK     0       1.118  -9.087  21.043  0.00  0.00     0.209 C 
ENDBRANCH   7  13
ENDBRANCH   1   3
BRANCH   1  15
HETATM   15  C   UNK     0      -1.413  -2.261  21.475  0.00  0.00     0.679 A 
HETATM   16  N   UNK     0      -2.466  -1.337  22.115  0.00  0.00    -0.180 N 
HETATM   17  C   UNK     0      -2.106   0.120  22.456  0.00  0.00     0.100 A 
HETATM   18  HN  UNK     0      -3.401  -1.691  22.313  1.00  0.00     0.185 HD
HETATM   19  C   UNK     0      -0.693   0.655  22.156  0.00  0.00     0.097 A 
HETATM   20  C   UNK     0       0.360  -0.268  21.516  0.00  0.00     0.145 A 
HETATM   21  N   UNK     0      -0.000  -1.727  21.175  0.00  0.00    -0.226 N 
HETATM   22  HN  UNK     0       0.697  -2.338  20.751  1.00  0.00     0.177 HD
BRANCH  17  23
HETATM   23  N   UNK     0      -3.159   1.044  23.096  0.00  0.00    -0.347 N 
HETATM   24  C   UNK     0      -2.715   2.213  23.994  0.00  0.00     0.157 C 
BRANCH  23  25
HETATM   25  C   UNK     0      -4.658   0.798  22.837  0.00  0.00    -0.004 A 
HETATM   26  C   UNK     0      -5.468  -0.096  23.795  0.00  0.00     0.111 A 
HETATM   27  C   UNK     0      -6.966  -0.341  23.536  0.00  0.00     0.039 A 
HETATM   28  C   UNK     0      -7.654   0.308  22.321  0.00  0.00    -0.010 A 
HETATM   29  N   UNK     0      -8.021  -1.167  24.295  0.00  0.00    -0.304 N 
HETATM   30  C   UNK     0      -6.844   1.202  21.364  0.00  0.00     0.048 A 
HETATM   31  C   UNK     0      -9.134  -0.117  22.329  0.00  0.00     0.030 A 
HETATM   32  C   UNK     0      -5.346   1.447  21.622  0.00  0.00     0.057 A 
HETATM   33  C   UNK     0     -10.200   0.296  21.298  0.00  0.00     0.070 C 
HETATM   34  N   UNK     0      -9.361  -1.029  23.549  0.00  0.00    -0.304 N 
HETATM   35  HN  UNK     0     -10.243  -1.465  23.816  1.00  0.00     0.186 HD
HETATM   36  HN  UNK     0      -7.860  -1.711  25.143  1.00  0.00     0.186 HD
ENDBRANCH  23  25
ENDBRANCH  17  23
ENDBRANCH   1  15
TORSDOF 7
ENDMDL
