MODEL 14
REMARK VINA RESULT:      -6.0     11.730     14.359
REMARK  7 active torsions:
REMARK  status: ('A' for Active; 'I' for Inactive)
REMARK    1  A    between atoms: N_1  and  C_5 
REMARK    2  A    between atoms: N_1  and  C_6 
REMARK    3  A    between atoms: C_9  and  N_23 
REMARK    4  A    between atoms: C_10  and  N_23 
REMARK    5  A    between atoms: C_15  and  O_36 
REMARK    6  A    between atoms: O_18  and  C_19 
REMARK    7  A    between atoms: C_34  and  O_35 
ROOT
HETATM    1  N   UNK     0      -6.259  -0.159  20.954  0.00  0.00    -0.199 N 
HETATM    2  HN  UNK     0      -6.704   0.202  20.111  1.00  0.00     0.183 HD
ENDROOT
BRANCH   1   3
HETATM    3  C   UNK     0      -4.846   0.314  21.343  0.00  0.00     0.016 A 
HETATM    4  C   UNK     0      -3.615  -0.256  20.613  0.00  0.00     0.120 A 
HETATM    5  C   UNK     0      -2.202   0.216  21.001  0.00  0.00     0.086 A 
HETATM    6  C   UNK     0      -2.020   1.260  22.120  0.00  0.00     0.127 A 
HETATM    7  C   UNK     0      -3.250   1.830  22.850  0.00  0.00     0.086 A 
HETATM    8  C   UNK     0      -4.663   1.357  22.461  0.00  0.00     0.120 A 
BRANCH   5   9
HETATM    9  O   UNK     0      -0.972  -0.353  20.272  0.00  0.00    -0.357 OA
HETATM   10  C   UNK     0      -0.090  -1.412  20.960  0.00  0.00     0.209 C 
ENDBRANCH   5   9
BRANCH   6  11
HETATM   11  O   UNK     0      -0.606   1.732  22.508  0.00  0.00    -0.351 OA
HETATM   12  C   UNK     0       0.106   1.112  23.725  0.00  0.00     0.210 C 
ENDBRANCH   6  11
BRANCH   7  13
HETATM   13  O   UNK     0      -3.067   2.872  23.968  0.00  0.00    -0.357 OA
HETATM   14  C   UNK     0      -4.251   3.762  24.392  0.00  0.00     0.209 C 
ENDBRANCH   7  13
ENDBRANCH   1   3
BRANCH   1  15
HETATM   15  C   UNK     0      -7.001  -1.178  21.840  0.00  0.00     0.679 A 
HETATM   16  N   UNK     0      -6.299  -1.784  23.069  0.00  0.00    -0.180 N 
HETATM   17  C   UNK     0      -7.039  -2.803  23.955  0.00  0.00     0.100 A 
HETATM   18  HN  UNK     0      -5.343  -1.511  23.297  1.00  0.00     0.185 HD
HETATM   19  C   UNK     0      -8.483  -3.216  23.611  0.00  0.00     0.097 A 
HETATM   20  C   UNK     0      -9.185  -2.610  22.381  0.00  0.00     0.145 A 
HETATM   21  N   UNK     0      -8.443  -1.591  21.496  0.00  0.00    -0.226 N 
HETATM   22  HN  UNK     0      -8.908  -1.189  20.681  1.00  0.00     0.177 HD
BRANCH  17  23
HETATM   23  N   UNK     0      -6.337  -3.409  25.184  0.00  0.00    -0.347 N 
HETATM   24  C   UNK     0      -6.803  -3.029  26.601  0.00  0.00     0.157 C 
BRANCH  23  25
HETATM   25  C   UNK     0      -5.170  -4.395  24.995  0.00  0.00    -0.004 A 
HETATM   26  C   UNK     0      -3.738  -3.865  24.792  0.00  0.00     0.111 A 
HETATM   27  C   UNK     0      -2.571  -4.851  24.603  0.00  0.00     0.039 A 
HETATM   28  C   UNK     0      -2.835  -6.368  24.619  0.00  0.00    -0.010 A 
HETATM   29  N   UNK     0      -1.062  -4.632  24.383  0.00  0.00    -0.304 N 
HETATM   30  C   UNK     0      -4.265  -6.899  24.822  0.00  0.00     0.048 A 
HETATM   31  C   UNK     0      -1.489  -7.087  24.408  0.00  0.00     0.030 A 
HETATM   32  C   UNK     0      -5.433  -5.912  25.011  0.00  0.00     0.057 A 
HETATM   33  C   UNK     0      -1.276  -8.611  24.352  0.00  0.00     0.070 C 
HETATM   34  N   UNK     0      -0.394  -6.014  24.262  0.00  0.00    -0.304 N 
HETATM   35  HN  UNK     0       0.600  -6.188  24.112  1.00  0.00     0.186 HD
HETATM   36  HN  UNK     0      -0.589  -3.730  24.327  1.00  0.00     0.186 HD
ENDBRANCH  23  25
ENDBRANCH  17  23
ENDBRANCH   1  15
TORSDOF 7
ENDMDL
