MODEL 2
REMARK VINA RESULT:      -8.2      0.151      2.376
REMARK  7 active torsions:
REMARK  status: ('A' for Active; 'I' for Inactive)
REMARK    1  A    between atoms: N_1  and  C_5 
REMARK    2  A    between atoms: N_1  and  C_6 
REMARK    3  A    between atoms: C_9  and  N_23 
REMARK    4  A    between atoms: C_10  and  N_23 
REMARK    5  A    between atoms: C_15  and  O_36 
REMARK    6  A    between atoms: O_18  and  C_19 
REMARK    7  A    between atoms: C_34  and  O_35 
ROOT
HETATM    1  N   UNK     0       4.682  -4.443  10.709  0.00  0.00    -0.199 N 
HETATM    2  HN  UNK     0       5.508  -4.554  11.297  1.00  0.00     0.183 HD
ENDROOT
BRANCH   1   3
HETATM    3  C   UNK     0       4.690  -3.423   9.555  0.00  0.00     0.016 A 
HETATM    4  C   UNK     0       6.020  -2.810   9.078  0.00  0.00     0.120 A 
HETATM    5  C   UNK     0       6.027  -1.790   7.924  0.00  0.00     0.086 A 
HETATM    6  C   UNK     0       4.704  -1.383   7.247  0.00  0.00     0.127 A 
HETATM    7  C   UNK     0       3.374  -1.997   7.725  0.00  0.00     0.086 A 
HETATM    8  C   UNK     0       3.367  -3.017   8.878  0.00  0.00     0.120 A 
BRANCH   5   9
HETATM    9  O   UNK     0       7.356  -1.177   7.447  0.00  0.00    -0.357 OA
HETATM   10  C   UNK     0       7.971   0.014   8.206  0.00  0.00     0.209 C 
ENDBRANCH   5   9
BRANCH   6  11
HETATM   11  O   UNK     0       4.712  -0.364   6.094  0.00  0.00    -0.351 OA
HETATM   12  C   UNK     0       4.876   1.138   6.394  0.00  0.00     0.210 C 
ENDBRANCH   6  11
BRANCH   7  13
HETATM   13  O   UNK     0       2.053  -1.590   7.048  0.00  0.00    -0.357 OA
HETATM   14  C   UNK     0       1.497  -0.166   7.238  0.00  0.00     0.209 C 
ENDBRANCH   7  13
ENDBRANCH   1   3
BRANCH   1  15
HETATM   15  C   UNK     0       3.427  -5.296  10.975  0.00  0.00     0.679 A 
HETATM   16  N   UNK     0       2.644  -5.124  12.290  0.00  0.00    -0.180 N 
HETATM   17  C   UNK     0       1.390  -5.976  12.556  0.00  0.00     0.100 A 
HETATM   18  HN  UNK     0       2.957  -4.446  12.985  1.00  0.00     0.185 HD
HETATM   19  C   UNK     0       0.918  -7.000  11.507  0.00  0.00     0.097 A 
HETATM   20  C   UNK     0       1.701  -7.172  10.192  0.00  0.00     0.145 A 
HETATM   21  N   UNK     0       2.956  -6.320   9.926  0.00  0.00    -0.226 N 
HETATM   22  HN  UNK     0       3.474  -6.433   9.055  1.00  0.00     0.177 HD
BRANCH  17  23
HETATM   23  N   UNK     0       0.607  -5.804  13.871  0.00  0.00    -0.347 N 
HETATM   24  C   UNK     0      -0.447  -4.690  14.000  0.00  0.00     0.157 C 
BRANCH  23  25
HETATM   25  C   UNK     0       0.880  -6.747  15.058  0.00  0.00    -0.004 A 
HETATM   26  C   UNK     0       2.143  -7.628  15.068  0.00  0.00     0.111 A 
HETATM   27  C   UNK     0       2.415  -8.571  16.255  0.00  0.00     0.039 A 
HETATM   28  C   UNK     0       1.424  -8.632  17.432  0.00  0.00    -0.010 A 
HETATM   29  N   UNK     0       3.564  -9.554  16.548  0.00  0.00    -0.304 N 
HETATM   30  C   UNK     0       0.162  -7.751  17.423  0.00  0.00     0.048 A 
HETATM   31  C   UNK     0       1.961  -9.653  18.453  0.00  0.00     0.030 A 
HETATM   32  C   UNK     0      -0.111  -6.808  16.236  0.00  0.00     0.057 A 
HETATM   33  C   UNK     0       1.293 -10.037  19.786  0.00  0.00     0.070 C 
HETATM   34  N   UNK     0       3.283 -10.222  17.906  0.00  0.00    -0.304 N 
HETATM   35  HN  UNK     0       3.870 -10.920  18.364  1.00  0.00     0.186 HD
HETATM   36  HN  UNK     0       4.369  -9.730  15.947  1.00  0.00     0.186 HD
ENDBRANCH  23  25
ENDBRANCH  17  23
ENDBRANCH   1  15
TORSDOF 7
ENDMDL
