MODEL 4
REMARK VINA RESULT:      -8.1      8.130     12.713
REMARK  7 active torsions:
REMARK  status: ('A' for Active; 'I' for Inactive)
REMARK    1  A    between atoms: N_1  and  C_5 
REMARK    2  A    between atoms: N_1  and  C_6 
REMARK    3  A    between atoms: C_9  and  N_23 
REMARK    4  A    between atoms: C_10  and  N_23 
REMARK    5  A    between atoms: C_15  and  O_36 
REMARK    6  A    between atoms: O_18  and  C_19 
REMARK    7  A    between atoms: C_34  and  O_35 
ROOT
HETATM    1  N   UNK     0      -1.392  -3.828  23.985  0.00  0.00    -0.199 N 
HETATM    2  HN  UNK     0      -0.667  -3.479  24.611  1.00  0.00     0.183 HD
ENDROOT
BRANCH   1   3
HETATM    3  C   UNK     0      -2.185  -2.846  23.102  0.00  0.00     0.016 A 
HETATM    4  C   UNK     0      -1.480  -1.622  22.487  0.00  0.00     0.120 A 
HETATM    5  C   UNK     0      -2.274  -0.641  21.604  0.00  0.00     0.086 A 
HETATM    6  C   UNK     0      -3.771  -0.883  21.337  0.00  0.00     0.127 A 
HETATM    7  C   UNK     0      -4.475  -2.106  21.953  0.00  0.00     0.086 A 
HETATM    8  C   UNK     0      -3.682  -3.088  22.835  0.00  0.00     0.120 A 
BRANCH   5   9
HETATM    9  O   UNK     0      -1.570   0.583  20.989  0.00  0.00    -0.357 OA
HETATM   10  C   UNK     0      -0.679   1.481  21.867  0.00  0.00     0.209 C 
ENDBRANCH   5   9
BRANCH   6  11
HETATM   11  O   UNK     0      -4.564   0.099  20.455  0.00  0.00    -0.351 OA
HETATM   12  C   UNK     0      -5.263   1.315  21.091  0.00  0.00     0.210 C 
ENDBRANCH   6  11
BRANCH   7  13
HETATM   13  O   UNK     0      -5.972  -2.348  21.685  0.00  0.00    -0.357 OA
HETATM   14  C   UNK     0      -7.033  -1.556  22.474  0.00  0.00     0.209 C 
ENDBRANCH   7  13
ENDBRANCH   1   3
BRANCH   1  15
HETATM   15  C   UNK     0      -1.694  -5.337  23.922  0.00  0.00     0.679 A 
HETATM   16  N   UNK     0      -0.692  -6.295  23.253  0.00  0.00    -0.180 N 
HETATM   17  C   UNK     0      -0.993  -7.803  23.189  0.00  0.00     0.100 A 
HETATM   18  HN  UNK     0       0.172  -5.931  22.851  1.00  0.00     0.185 HD
HETATM   19  C   UNK     0      -2.298  -8.354  23.795  0.00  0.00     0.097 A 
HETATM   20  C   UNK     0      -3.301  -7.395  24.464  0.00  0.00     0.145 A 
HETATM   21  N   UNK     0      -2.998  -5.886  24.527  0.00  0.00    -0.226 N 
HETATM   22  HN  UNK     0      -3.662  -5.251  24.970  1.00  0.00     0.177 HD
BRANCH  17  23
HETATM   23  N   UNK     0       0.009  -8.762  22.520  0.00  0.00    -0.347 N 
HETATM   24  C   UNK     0       0.735  -9.827  23.362  0.00  0.00     0.157 C 
BRANCH  23  25
HETATM   25  C   UNK     0       0.286  -8.655  21.009  0.00  0.00    -0.004 A 
HETATM   26  C   UNK     0       1.495  -9.384  20.393  0.00  0.00     0.111 A 
HETATM   27  C   UNK     0       1.771  -9.277  18.882  0.00  0.00     0.039 A 
HETATM   28  C   UNK     0       0.838  -8.441  17.987  0.00  0.00    -0.010 A 
HETATM   29  N   UNK     0       2.875  -9.877  17.991  0.00  0.00    -0.304 N 
HETATM   30  C   UNK     0      -0.371  -7.712  18.601  0.00  0.00     0.048 A 
HETATM   31  C   UNK     0       1.365  -8.524  16.542  0.00  0.00     0.030 A 
HETATM   32  C   UNK     0      -0.647  -7.819  20.113  0.00  0.00     0.057 A 
HETATM   33  C   UNK     0       0.744  -7.840  15.310  0.00  0.00     0.070 C 
HETATM   34  N   UNK     0       2.624  -9.411  16.545  0.00  0.00    -0.304 N 
HETATM   35  HN  UNK     0       3.192  -9.649  15.732  1.00  0.00     0.186 HD
HETATM   36  HN  UNK     0       3.638 -10.476  18.305  1.00  0.00     0.186 HD
ENDBRANCH  23  25
ENDBRANCH  17  23
ENDBRANCH   1  15
TORSDOF 7
ENDMDL
