MODEL 7
REMARK VINA RESULT:      -6.9      9.194     14.090
REMARK  7 active torsions:
REMARK  status: ('A' for Active; 'I' for Inactive)
REMARK    1  A    between atoms: N_1  and  C_5 
REMARK    2  A    between atoms: N_1  and  C_6 
REMARK    3  A    between atoms: C_9  and  N_23 
REMARK    4  A    between atoms: C_10  and  N_23 
REMARK    5  A    between atoms: C_15  and  O_36 
REMARK    6  A    between atoms: O_18  and  C_19 
REMARK    7  A    between atoms: C_34  and  O_35 
ROOT
HETATM    1  N   UNK     0      -4.983  -5.046  24.226  0.00  0.00    -0.199 N 
HETATM    2  HN  UNK     0      -5.978  -4.933  24.034  1.00  0.00     0.183 HD
ENDROOT
BRANCH   1   3
HETATM    3  C   UNK     0      -4.045  -3.826  24.170  0.00  0.00     0.016 A 
HETATM    4  C   UNK     0      -3.249  -3.409  25.422  0.00  0.00     0.120 A 
HETATM    5  C   UNK     0      -2.311  -2.189  25.367  0.00  0.00     0.086 A 
HETATM    6  C   UNK     0      -2.168  -1.386  24.060  0.00  0.00     0.127 A 
HETATM    7  C   UNK     0      -2.963  -1.803  22.808  0.00  0.00     0.086 A 
HETATM    8  C   UNK     0      -3.901  -3.023  22.864  0.00  0.00     0.120 A 
BRANCH   5   9
HETATM    9  O   UNK     0      -1.516  -1.772  26.617  0.00  0.00    -0.357 OA
HETATM   10  C   UNK     0      -2.132  -0.786  27.628  0.00  0.00     0.209 C 
ENDBRANCH   5   9
BRANCH   6  11
HETATM   11  O   UNK     0      -1.229  -0.166  24.004  0.00  0.00    -0.351 OA
HETATM   12  C   UNK     0      -1.810   1.257  24.100  0.00  0.00     0.210 C 
ENDBRANCH   6  11
BRANCH   7  13
HETATM   13  O   UNK     0      -2.820  -1.001  21.502  0.00  0.00    -0.357 OA
HETATM   14  C   UNK     0      -3.965  -0.085  21.032  0.00  0.00     0.209 C 
ENDBRANCH   7  13
ENDBRANCH   1   3
BRANCH   1  15
HETATM   15  C   UNK     0      -4.418  -6.436  24.571  0.00  0.00     0.679 A 
HETATM   16  N   UNK     0      -2.953  -6.776  24.241  0.00  0.00    -0.180 N 
HETATM   17  C   UNK     0      -2.388  -8.166  24.586  0.00  0.00     0.100 A 
HETATM   18  HN  UNK     0      -2.357  -6.081  23.794  1.00  0.00     0.185 HD
HETATM   19  C   UNK     0      -3.289  -9.217  25.262  0.00  0.00     0.097 A 
HETATM   20  C   UNK     0      -4.754  -8.877  25.592  0.00  0.00     0.145 A 
HETATM   21  N   UNK     0      -5.319  -7.486  25.247  0.00  0.00    -0.226 N 
HETATM   22  HN  UNK     0      -6.289  -7.261  25.465  1.00  0.00     0.177 HD
BRANCH  17  23
HETATM   23  N   UNK     0      -0.923  -8.506  24.256  0.00  0.00    -0.347 N 
HETATM   24  C   UNK     0       0.057  -8.868  25.386  0.00  0.00     0.157 C 
BRANCH  23  25
HETATM   25  C   UNK     0      -0.438  -8.484  22.794  0.00  0.00    -0.004 A 
HETATM   26  C   UNK     0       0.468  -9.612  22.266  0.00  0.00     0.111 A 
HETATM   27  C   UNK     0       0.953  -9.589  20.805  0.00  0.00     0.039 A 
HETATM   28  C   UNK     0       0.531  -8.439  19.871  0.00  0.00    -0.010 A 
HETATM   29  N   UNK     0       1.847 -10.552  20.001  0.00  0.00    -0.304 N 
HETATM   30  C   UNK     0      -0.375  -7.312  20.398  0.00  0.00     0.048 A 
HETATM   31  C   UNK     0       1.164  -8.691  18.490  0.00  0.00     0.030 A 
HETATM   32  C   UNK     0      -0.860  -7.334  21.860  0.00  0.00     0.057 A 
HETATM   33  C   UNK     0       1.012  -7.795  17.247  0.00  0.00     0.070 C 
HETATM   34  N   UNK     0       1.978  -9.996  18.570  0.00  0.00    -0.304 N 
HETATM   35  HN  UNK     0       2.510 -10.419  17.809  1.00  0.00     0.186 HD
HETATM   36  HN  UNK     0       2.277 -11.406  20.354  1.00  0.00     0.186 HD
ENDBRANCH  23  25
ENDBRANCH  17  23
ENDBRANCH   1  15
TORSDOF 7
ENDMDL
