MODEL 20
REMARK VINA RESULT:      -5.8     12.628     14.161
REMARK  7 active torsions:
REMARK  status: ('A' for Active; 'I' for Inactive)
REMARK    1  A    between atoms: N_1  and  C_5 
REMARK    2  A    between atoms: N_1  and  C_6 
REMARK    3  A    between atoms: C_9  and  N_23 
REMARK    4  A    between atoms: C_10  and  N_23 
REMARK    5  A    between atoms: C_15  and  O_36 
REMARK    6  A    between atoms: O_18  and  C_19 
REMARK    7  A    between atoms: C_34  and  O_35 
ROOT
HETATM    1  N   UNK     0      -1.621  -3.747  22.724  0.00  0.00    -0.199 N 
HETATM    2  HN  UNK     0      -0.826  -4.092  22.186  1.00  0.00     0.183 HD
ENDROOT
BRANCH   1   3
HETATM    3  C   UNK     0      -2.437  -2.547  22.209  0.00  0.00     0.016 A 
HETATM    4  C   UNK     0      -1.752  -1.184  21.996  0.00  0.00     0.120 A 
HETATM    5  C   UNK     0      -2.569   0.016  21.481  0.00  0.00     0.086 A 
HETATM    6  C   UNK     0      -4.070  -0.148  21.178  0.00  0.00     0.127 A 
HETATM    7  C   UNK     0      -4.755  -1.511  21.390  0.00  0.00     0.086 A 
HETATM    8  C   UNK     0      -3.939  -2.711  21.906  0.00  0.00     0.120 A 
BRANCH   5   9
HETATM    9  O   UNK     0      -1.884   1.378  21.269  0.00  0.00    -0.357 OA
HETATM   10  C   UNK     0      -0.714   1.802  22.176  0.00  0.00     0.209 C 
ENDBRANCH   5   9
BRANCH   6  11
HETATM   11  O   UNK     0      -4.886   1.052  20.663  0.00  0.00    -0.351 OA
HETATM   12  C   UNK     0      -5.685   1.922  21.652  0.00  0.00     0.210 C 
ENDBRANCH   6  11
BRANCH   7  13
HETATM   13  O   UNK     0      -6.255  -1.674  21.087  0.00  0.00    -0.357 OA
HETATM   14  C   UNK     0      -7.281  -1.639  22.236  0.00  0.00     0.209 C 
ENDBRANCH   7  13
ENDBRANCH   1   3
BRANCH   1  15
HETATM   15  C   UNK     0      -2.005  -4.426  24.052  0.00  0.00     0.679 A 
HETATM   16  N   UNK     0      -2.828  -5.728  24.042  0.00  0.00    -0.180 N 
HETATM   17  C   UNK     0      -3.212  -6.407  25.369  0.00  0.00     0.100 A 
HETATM   18  HN  UNK     0      -3.118  -6.141  23.155  1.00  0.00     0.185 HD
HETATM   19  C   UNK     0      -2.773  -5.784  26.707  0.00  0.00     0.097 A 
HETATM   20  C   UNK     0      -1.950  -4.482  26.718  0.00  0.00     0.145 A 
HETATM   21  N   UNK     0      -1.566  -3.803  25.390  0.00  0.00    -0.226 N 
HETATM   22  HN  UNK     0      -1.022  -2.941  25.397  1.00  0.00     0.177 HD
BRANCH  17  23
HETATM   23  N   UNK     0      -4.034  -7.709  25.358  0.00  0.00    -0.347 N 
HETATM   24  C   UNK     0      -5.568  -7.650  25.239  0.00  0.00     0.157 C 
BRANCH  23  25
HETATM   25  C   UNK     0      -3.322  -9.071  25.467  0.00  0.00    -0.004 A 
HETATM   26  C   UNK     0      -1.793  -9.129  25.643  0.00  0.00     0.111 A 
HETATM   27  C   UNK     0      -1.082 -10.490  25.752  0.00  0.00     0.039 A 
HETATM   28  C   UNK     0      -1.899 -11.793  25.685  0.00  0.00    -0.010 A 
HETATM   29  N   UNK     0       0.401 -10.866  25.928  0.00  0.00    -0.304 N 
HETATM   30  C   UNK     0      -3.428 -11.736  25.509  0.00  0.00     0.048 A 
HETATM   31  C   UNK     0      -0.921 -12.976  25.821  0.00  0.00     0.030 A 
HETATM   32  C   UNK     0      -4.139 -10.374  25.401  0.00  0.00     0.057 A 
HETATM   33  C   UNK     0      -1.298 -14.468  25.808  0.00  0.00     0.070 C 
HETATM   34  N   UNK     0       0.500 -12.402  25.971  0.00  0.00    -0.304 N 
HETATM   35  HN  UNK     0       1.357 -12.945  26.080  1.00  0.00     0.186 HD
HETATM   36  HN  UNK     0       1.181 -10.213  26.004  1.00  0.00     0.186 HD
ENDBRANCH  23  25
ENDBRANCH  17  23
ENDBRANCH   1  15
TORSDOF 7
ENDMDL
