MODEL 17
REMARK VINA RESULT:      -6.0     12.136     15.521
REMARK  7 active torsions:
REMARK  status: ('A' for Active; 'I' for Inactive)
REMARK    1  A    between atoms: N_1  and  C_5 
REMARK    2  A    between atoms: N_1  and  C_6 
REMARK    3  A    between atoms: C_9  and  N_23 
REMARK    4  A    between atoms: C_10  and  N_23 
REMARK    5  A    between atoms: C_15  and  O_36 
REMARK    6  A    between atoms: O_18  and  C_19 
REMARK    7  A    between atoms: C_34  and  O_35 
ROOT
HETATM    1  N   UNK     0      -4.495  -6.477  25.686  0.00  0.00    -0.199 N 
HETATM    2  HN  UNK     0      -4.693  -6.360  26.679  1.00  0.00     0.183 HD
ENDROOT
BRANCH   1   3
HETATM    3  C   UNK     0      -3.223  -7.218  25.236  0.00  0.00     0.016 A 
HETATM    4  C   UNK     0      -2.262  -6.559  24.229  0.00  0.00     0.120 A 
HETATM    5  C   UNK     0      -0.990  -7.301  23.779  0.00  0.00     0.086 A 
HETATM    6  C   UNK     0      -0.678  -8.702  24.336  0.00  0.00     0.127 A 
HETATM    7  C   UNK     0      -1.639  -9.362  25.344  0.00  0.00     0.086 A 
HETATM    8  C   UNK     0      -2.911  -8.620  25.793  0.00  0.00     0.120 A 
BRANCH   5   9
HETATM    9  O   UNK     0      -0.030  -6.642  22.772  0.00  0.00    -0.357 OA
HETATM   10  C   UNK     0      -0.047  -5.114  22.579  0.00  0.00     0.209 C 
ENDBRANCH   5   9
BRANCH   6  11
HETATM   11  O   UNK     0       0.594  -9.444  23.887  0.00  0.00    -0.351 OA
HETATM   12  C   UNK     0       0.746  -9.893  22.421  0.00  0.00     0.210 C 
ENDBRANCH   6  11
BRANCH   7  13
HETATM   13  O   UNK     0      -1.327 -10.763  25.900  0.00  0.00    -0.357 OA
HETATM   14  C   UNK     0      -1.521 -12.006  25.011  0.00  0.00     0.209 C 
ENDBRANCH   7  13
ENDBRANCH   1   3
BRANCH   1  15
HETATM   15  C   UNK     0      -5.469  -5.911  24.635  0.00  0.00     0.679 A 
HETATM   16  N   UNK     0      -5.273  -4.483  24.094  0.00  0.00    -0.180 N 
HETATM   17  C   UNK     0      -6.246  -3.917  23.043  0.00  0.00     0.100 A 
HETATM   18  HN  UNK     0      -4.499  -3.911  24.431  1.00  0.00     0.185 HD
HETATM   19  C   UNK     0      -7.416  -4.780  22.534  0.00  0.00     0.097 A 
HETATM   20  C   UNK     0      -7.612  -6.209  23.075  0.00  0.00     0.145 A 
HETATM   21  N   UNK     0      -6.638  -6.774  24.126  0.00  0.00    -0.226 N 
HETATM   22  HN  UNK     0      -6.768  -7.720  24.484  1.00  0.00     0.177 HD
BRANCH  17  23
HETATM   23  N   UNK     0      -6.051  -2.489  22.502  0.00  0.00    -0.347 N 
HETATM   24  C   UNK     0      -7.249  -1.712  21.929  0.00  0.00     0.157 C 
BRANCH  23  25
HETATM   25  C   UNK     0      -4.655  -1.838  22.534  0.00  0.00    -0.004 A 
HETATM   26  C   UNK     0      -3.586  -2.255  21.507  0.00  0.00     0.111 A 
HETATM   27  C   UNK     0      -2.192  -1.604  21.539  0.00  0.00     0.039 A 
HETATM   28  C   UNK     0      -1.865  -0.536  22.599  0.00  0.00    -0.010 A 
HETATM   29  N   UNK     0      -0.940  -1.806  20.665  0.00  0.00    -0.304 N 
HETATM   30  C   UNK     0      -2.933  -0.118  23.626  0.00  0.00     0.048 A 
HETATM   31  C   UNK     0      -0.411  -0.077  22.380  0.00  0.00     0.030 A 
HETATM   32  C   UNK     0      -4.328  -0.769  23.594  0.00  0.00     0.057 A 
HETATM   33  C   UNK     0       0.339   0.980  23.210  0.00  0.00     0.070 C 
HETATM   34  N   UNK     0       0.161  -0.862  21.185  0.00  0.00    -0.304 N 
HETATM   35  HN  UNK     0       1.103  -0.773  20.805  1.00  0.00     0.186 HD
HETATM   36  HN  UNK     0      -0.854  -2.451  19.880  1.00  0.00     0.186 HD
ENDBRANCH  23  25
ENDBRANCH  17  23
ENDBRANCH   1  15
TORSDOF 7
ENDMDL
