MODEL 18
REMARK VINA RESULT:      -5.9     11.561     15.566
REMARK  7 active torsions:
REMARK  status: ('A' for Active; 'I' for Inactive)
REMARK    1  A    between atoms: N_1  and  C_5 
REMARK    2  A    between atoms: N_1  and  C_6 
REMARK    3  A    between atoms: C_9  and  N_23 
REMARK    4  A    between atoms: C_10  and  N_23 
REMARK    5  A    between atoms: C_15  and  O_36 
REMARK    6  A    between atoms: O_18  and  C_19 
REMARK    7  A    between atoms: C_34  and  O_35 
ROOT
HETATM    1  N   UNK     0      -1.519  -4.183  21.487  0.00  0.00    -0.199 N 
HETATM    2  HN  UNK     0      -2.013  -4.414  20.625  1.00  0.00     0.183 HD
ENDROOT
BRANCH   1   3
HETATM    3  C   UNK     0      -1.035  -5.307  22.422  0.00  0.00     0.016 A 
HETATM    4  C   UNK     0      -0.787  -6.720  21.863  0.00  0.00     0.120 A 
HETATM    5  C   UNK     0      -0.303  -7.844  22.798  0.00  0.00     0.086 A 
HETATM    6  C   UNK     0      -0.066  -7.554  24.293  0.00  0.00     0.127 A 
HETATM    7  C   UNK     0      -0.314  -6.140  24.851  0.00  0.00     0.086 A 
HETATM    8  C   UNK     0      -0.798  -5.016  23.916  0.00  0.00     0.120 A 
BRANCH   5   9
HETATM    9  O   UNK     0      -0.055  -9.257  22.240  0.00  0.00    -0.357 OA
HETATM   10  C   UNK     0       0.691  -9.438  20.905  0.00  0.00     0.209 C 
ENDBRANCH   5   9
BRANCH   6  11
HETATM   11  O   UNK     0       0.418  -8.677  25.228  0.00  0.00    -0.351 OA
HETATM   12  C   UNK     0      -0.580  -9.382  26.166  0.00  0.00     0.210 C 
ENDBRANCH   6  11
BRANCH   7  13
HETATM   13  O   UNK     0      -0.078  -5.850  26.345  0.00  0.00    -0.357 OA
HETATM   14  C   UNK     0       1.355  -5.641  26.871  0.00  0.00     0.209 C 
ENDBRANCH   7  13
ENDBRANCH   1   3
BRANCH   1  15
HETATM   15  C   UNK     0      -1.257  -2.710  21.853  0.00  0.00     0.679 A 
HETATM   16  N   UNK     0      -2.151  -2.004  22.889  0.00  0.00    -0.180 N 
HETATM   17  C   UNK     0      -1.889  -0.531  23.255  0.00  0.00     0.100 A 
HETATM   18  HN  UNK     0      -2.916  -2.511  23.333  1.00  0.00     0.185 HD
HETATM   19  C   UNK     0      -0.734   0.235  22.585  0.00  0.00     0.097 A 
HETATM   20  C   UNK     0       0.160  -0.471  21.549  0.00  0.00     0.145 A 
HETATM   21  N   UNK     0      -0.102  -1.944  21.183  0.00  0.00    -0.226 N 
HETATM   22  HN  UNK     0       0.490  -2.412  20.497  1.00  0.00     0.177 HD
BRANCH  17  23
HETATM   23  N   UNK     0      -2.783   0.175  24.291  0.00  0.00    -0.347 N 
HETATM   24  C   UNK     0      -2.158   0.785  25.559  0.00  0.00     0.157 C 
BRANCH  23  25
HETATM   25  C   UNK     0      -4.303   0.271  24.059  0.00  0.00    -0.004 A 
HETATM   26  C   UNK     0      -4.867   0.240  22.626  0.00  0.00     0.111 A 
HETATM   27  C   UNK     0      -6.386   0.336  22.395  0.00  0.00     0.039 A 
HETATM   28  C   UNK     0      -7.341   0.464  23.595  0.00  0.00    -0.010 A 
HETATM   29  N   UNK     0      -7.235   0.332  21.109  0.00  0.00    -0.304 N 
HETATM   30  C   UNK     0      -6.778   0.495  25.028  0.00  0.00     0.048 A 
HETATM   31  C   UNK     0      -8.781   0.538  23.052  0.00  0.00     0.030 A 
HETATM   32  C   UNK     0      -5.259   0.399  25.260  0.00  0.00     0.057 A 
HETATM   33  C   UNK     0     -10.061   0.671  23.897  0.00  0.00     0.070 C 
HETATM   34  N   UNK     0      -8.715   0.457  21.516  0.00  0.00    -0.304 N 
HETATM   35  HN  UNK     0      -9.511   0.482  20.879  1.00  0.00     0.186 HD
HETATM   36  HN  UNK     0      -6.879   0.259  20.156  1.00  0.00     0.186 HD
ENDBRANCH  23  25
ENDBRANCH  17  23
ENDBRANCH   1  15
TORSDOF 7
ENDMDL
