MODEL 3
REMARK VINA RESULT:      -8.1      8.159     12.503
REMARK  7 active torsions:
REMARK  status: ('A' for Active; 'I' for Inactive)
REMARK    1  A    between atoms: N_1  and  C_5 
REMARK    2  A    between atoms: N_1  and  C_6 
REMARK    3  A    between atoms: C_9  and  N_23 
REMARK    4  A    between atoms: C_10  and  N_23 
REMARK    5  A    between atoms: C_15  and  O_36 
REMARK    6  A    between atoms: O_18  and  C_19 
REMARK    7  A    between atoms: C_34  and  O_35 
ROOT
HETATM    1  N   UNK     0      -1.276  -3.768  23.880  0.00  0.00    -0.199 N 
HETATM    2  HN  UNK     0      -0.502  -3.424  24.448  1.00  0.00     0.183 HD
ENDROOT
BRANCH   1   3
HETATM    3  C   UNK     0      -2.113  -2.783  23.042  0.00  0.00     0.016 A 
HETATM    4  C   UNK     0      -3.596  -3.085  22.755  0.00  0.00     0.120 A 
HETATM    5  C   UNK     0      -4.433  -2.100  21.917  0.00  0.00     0.086 A 
HETATM    6  C   UNK     0      -3.787  -0.814  21.367  0.00  0.00     0.127 A 
HETATM    7  C   UNK     0      -2.305  -0.513  21.655  0.00  0.00     0.086 A 
HETATM    8  C   UNK     0      -1.467  -1.498  22.492  0.00  0.00     0.120 A 
BRANCH   5   9
HETATM    9  O   UNK     0      -5.915  -2.401  21.630  0.00  0.00    -0.357 OA
HETATM   10  C   UNK     0      -7.016  -1.705  22.452  0.00  0.00     0.209 C 
ENDBRANCH   5   9
BRANCH   6  11
HETATM   11  O   UNK     0      -4.625   0.170  20.530  0.00  0.00    -0.351 OA
HETATM   12  C   UNK     0      -5.302   1.375  21.208  0.00  0.00     0.210 C 
ENDBRANCH   6  11
BRANCH   7  13
HETATM   13  O   UNK     0      -1.660   0.772  21.105  0.00  0.00    -0.357 OA
HETATM   14  C   UNK     0      -0.666   1.567  21.973  0.00  0.00     0.209 C 
ENDBRANCH   7  13
ENDBRANCH   1   3
BRANCH   1  15
HETATM   15  C   UNK     0      -1.608  -5.272  23.860  0.00  0.00     0.679 A 
HETATM   16  N   UNK     0      -0.640  -6.266  23.192  0.00  0.00    -0.180 N 
HETATM   17  C   UNK     0      -0.972  -7.769  23.172  0.00  0.00     0.100 A 
HETATM   18  HN  UNK     0       0.221  -5.928  22.762  1.00  0.00     0.185 HD
HETATM   19  C   UNK     0      -2.272  -8.279  23.820  0.00  0.00     0.097 A 
HETATM   20  C   UNK     0      -3.241  -7.285  24.489  0.00  0.00     0.145 A 
HETATM   21  N   UNK     0      -2.908  -5.781  24.509  0.00  0.00    -0.226 N 
HETATM   22  HN  UNK     0      -3.550  -5.123  24.951  1.00  0.00     0.177 HD
BRANCH  17  23
HETATM   23  N   UNK     0      -0.004  -8.762  22.503  0.00  0.00    -0.347 N 
HETATM   24  C   UNK     0       0.679  -9.856  23.344  0.00  0.00     0.157 C 
BRANCH  23  25
HETATM   25  C   UNK     0       0.281  -8.662  20.993  0.00  0.00    -0.004 A 
HETATM   26  C   UNK     0       1.483  -9.409  20.384  0.00  0.00     0.111 A 
HETATM   27  C   UNK     0       1.767  -9.309  18.875  0.00  0.00     0.039 A 
HETATM   28  C   UNK     0       0.851  -8.461  17.973  0.00  0.00    -0.010 A 
HETATM   29  N   UNK     0       2.867  -9.926  17.990  0.00  0.00    -0.304 N 
HETATM   30  C   UNK     0      -0.350  -7.714  18.581  0.00  0.00     0.048 A 
HETATM   31  C   UNK     0       1.384  -8.554  16.531  0.00  0.00     0.030 A 
HETATM   32  C   UNK     0      -0.635  -7.814  20.091  0.00  0.00     0.057 A 
HETATM   33  C   UNK     0       0.778  -7.864  15.295  0.00  0.00     0.070 C 
HETATM   34  N   UNK     0       2.629  -9.460  16.542  0.00  0.00    -0.304 N 
HETATM   35  HN  UNK     0       3.198  -9.707  15.731  1.00  0.00     0.186 HD
HETATM   36  HN  UNK     0       3.619 -10.537  18.308  1.00  0.00     0.186 HD
ENDBRANCH  23  25
ENDBRANCH  17  23
ENDBRANCH   1  15
TORSDOF 7
ENDMDL
