MODEL 9
REMARK VINA RESULT:      -6.5      9.582     13.925
REMARK  7 active torsions:
REMARK  status: ('A' for Active; 'I' for Inactive)
REMARK    1  A    between atoms: N_1  and  C_5 
REMARK    2  A    between atoms: N_1  and  C_6 
REMARK    3  A    between atoms: C_9  and  N_23 
REMARK    4  A    between atoms: C_10  and  N_23 
REMARK    5  A    between atoms: C_15  and  O_36 
REMARK    6  A    between atoms: O_18  and  C_19 
REMARK    7  A    between atoms: C_34  and  O_35 
ROOT
HETATM    1  N   UNK     0      -5.299  -4.933  23.855  0.00  0.00    -0.199 N 
HETATM    2  HN  UNK     0      -6.212  -5.134  23.446  1.00  0.00     0.183 HD
ENDROOT
BRANCH   1   3
HETATM    3  C   UNK     0      -4.666  -3.541  23.678  0.00  0.00     0.016 A 
HETATM    4  C   UNK     0      -5.537  -2.277  23.805  0.00  0.00     0.120 A 
HETATM    5  C   UNK     0      -4.903  -0.884  23.628  0.00  0.00     0.086 A 
HETATM    6  C   UNK     0      -3.399  -0.756  23.324  0.00  0.00     0.127 A 
HETATM    7  C   UNK     0      -2.528  -2.020  23.197  0.00  0.00     0.086 A 
HETATM    8  C   UNK     0      -3.161  -3.413  23.374  0.00  0.00     0.120 A 
BRANCH   5   9
HETATM    9  O   UNK     0      -5.773   0.379  23.755  0.00  0.00    -0.357 OA
HETATM   10  C   UNK     0      -6.283   0.827  25.138  0.00  0.00     0.209 C 
ENDBRANCH   5   9
BRANCH   6  11
HETATM   11  O   UNK     0      -2.765   0.636  23.147  0.00  0.00    -0.351 OA
HETATM   12  C   UNK     0      -2.504   1.189  21.733  0.00  0.00     0.210 C 
ENDBRANCH   6  11
BRANCH   7  13
HETATM   13  O   UNK     0      -1.024  -1.891  22.893  0.00  0.00    -0.357 OA
HETATM   14  C   UNK     0      -0.514  -2.058  21.449  0.00  0.00     0.209 C 
ENDBRANCH   7  13
ENDBRANCH   1   3
BRANCH   1  15
HETATM   15  C   UNK     0      -4.555  -6.022  24.651  0.00  0.00     0.679 A 
HETATM   16  N   UNK     0      -3.109  -6.397  24.276  0.00  0.00    -0.180 N 
HETATM   17  C   UNK     0      -2.365  -7.485  25.070  0.00  0.00     0.100 A 
HETATM   18  HN  UNK     0      -2.644  -5.924  23.501  1.00  0.00     0.185 HD
HETATM   19  C   UNK     0      -3.067  -8.200  26.240  0.00  0.00     0.097 A 
HETATM   20  C   UNK     0      -4.513  -7.825  26.615  0.00  0.00     0.145 A 
HETATM   21  N   UNK     0      -5.257  -6.736  25.820  0.00  0.00    -0.226 N 
HETATM   22  HN  UNK     0      -6.215  -6.488  26.068  1.00  0.00     0.177 HD
BRANCH  17  23
HETATM   23  N   UNK     0      -0.919  -7.860  24.695  0.00  0.00    -0.347 N 
HETATM   24  C   UNK     0       0.130  -8.082  25.800  0.00  0.00     0.157 C 
BRANCH  23  25
HETATM   25  C   UNK     0      -0.522  -8.011  23.215  0.00  0.00    -0.004 A 
HETATM   26  C   UNK     0       0.332  -9.212  22.765  0.00  0.00     0.111 A 
HETATM   27  C   UNK     0       0.729  -9.363  21.286  0.00  0.00     0.039 A 
HETATM   28  C   UNK     0       0.271  -8.314  20.255  0.00  0.00    -0.010 A 
HETATM   29  N   UNK     0       1.557 -10.429  20.544  0.00  0.00    -0.304 N 
HETATM   30  C   UNK     0      -0.582  -7.114  20.703  0.00  0.00     0.048 A 
HETATM   31  C   UNK     0       0.817  -8.732  18.876  0.00  0.00     0.030 A 
HETATM   32  C   UNK     0      -0.979  -6.963  22.184  0.00  0.00     0.057 A 
HETATM   33  C   UNK     0       0.606  -7.977  17.552  0.00  0.00     0.070 C 
HETATM   34  N   UNK     0       1.611 -10.039  19.056  0.00  0.00    -0.304 N 
HETATM   35  HN  UNK     0       2.090 -10.556  18.318  1.00  0.00     0.186 HD
HETATM   36  HN  UNK     0       1.992 -11.249  20.966  1.00  0.00     0.186 HD
ENDBRANCH  23  25
ENDBRANCH  17  23
ENDBRANCH   1  15
TORSDOF 7
ENDMDL
