MODEL 10
REMARK VINA RESULT:      -6.5     10.028     13.646
REMARK  7 active torsions:
REMARK  status: ('A' for Active; 'I' for Inactive)
REMARK    1  A    between atoms: N_1  and  C_5 
REMARK    2  A    between atoms: N_1  and  C_6 
REMARK    3  A    between atoms: C_9  and  N_23 
REMARK    4  A    between atoms: C_10  and  N_23 
REMARK    5  A    between atoms: C_15  and  O_36 
REMARK    6  A    between atoms: O_18  and  C_19 
REMARK    7  A    between atoms: C_34  and  O_35 
ROOT
HETATM    1  N   UNK     0      -2.400  -2.546  22.064  0.00  0.00    -0.199 N 
HETATM    2  HN  UNK     0      -1.711  -2.216  21.388  1.00  0.00     0.183 HD
ENDROOT
BRANCH   1   3
HETATM    3  C   UNK     0      -3.857  -2.054  21.982  0.00  0.00     0.016 A 
HETATM    4  C   UNK     0      -4.986  -2.881  22.625  0.00  0.00     0.120 A 
HETATM    5  C   UNK     0      -6.443  -2.389  22.542  0.00  0.00     0.086 A 
HETATM    6  C   UNK     0      -6.771  -1.071  21.817  0.00  0.00     0.127 A 
HETATM    7  C   UNK     0      -5.642  -0.244  21.174  0.00  0.00     0.086 A 
HETATM    8  C   UNK     0      -4.185  -0.735  21.256  0.00  0.00     0.120 A 
BRANCH   5   9
HETATM    9  O   UNK     0      -7.572  -3.216  23.185  0.00  0.00    -0.357 OA
HETATM   10  C   UNK     0      -8.664  -3.846  22.300  0.00  0.00     0.209 C 
ENDBRANCH   5   9
BRANCH   6  11
HETATM   11  O   UNK     0      -8.228  -0.579  21.735  0.00  0.00    -0.351 OA
HETATM   12  C   UNK     0      -8.712   0.553  22.660  0.00  0.00     0.210 C 
ENDBRANCH   6  11
BRANCH   7  13
HETATM   13  O   UNK     0      -5.970   1.074  20.449  0.00  0.00    -0.357 OA
HETATM   14  C   UNK     0      -5.781   2.420  21.175  0.00  0.00     0.209 C 
ENDBRANCH   7  13
ENDBRANCH   1   3
BRANCH   1  15
HETATM   15  C   UNK     0      -1.982  -3.536  23.168  0.00  0.00     0.679 A 
HETATM   16  N   UNK     0      -1.860  -5.037  22.849  0.00  0.00    -0.180 N 
HETATM   17  C   UNK     0      -1.443  -6.027  23.951  0.00  0.00     0.100 A 
HETATM   18  HN  UNK     0      -2.055  -5.376  21.907  1.00  0.00     0.185 HD
HETATM   19  C   UNK     0      -1.148  -5.516  25.374  0.00  0.00     0.097 A 
HETATM   20  C   UNK     0      -1.271  -4.014  25.693  0.00  0.00     0.145 A 
HETATM   21  N   UNK     0      -1.688  -3.024  24.589  0.00  0.00    -0.226 N 
HETATM   22  HN  UNK     0      -1.769  -2.030  24.801  1.00  0.00     0.177 HD
BRANCH  17  23
HETATM   23  N   UNK     0      -1.320  -7.529  23.632  0.00  0.00    -0.347 N 
HETATM   24  C   UNK     0      -1.948  -8.570  24.576  0.00  0.00     0.157 C 
BRANCH  23  25
HETATM   25  C   UNK     0      -0.570  -7.989  22.368  0.00  0.00    -0.004 A 
HETATM   26  C   UNK     0      -0.959  -7.420  20.991  0.00  0.00     0.111 A 
HETATM   27  C   UNK     0      -0.209  -7.879  19.728  0.00  0.00     0.039 A 
HETATM   28  C   UNK     0       0.931  -8.909  19.841  0.00  0.00    -0.010 A 
HETATM   29  N   UNK     0      -0.363  -7.501  18.243  0.00  0.00    -0.304 N 
HETATM   30  C   UNK     0       1.321  -9.478  21.217  0.00  0.00     0.048 A 
HETATM   31  C   UNK     0       1.482  -9.167  18.426  0.00  0.00     0.030 A 
HETATM   32  C   UNK     0       0.570  -9.018  22.481  0.00  0.00     0.057 A 
HETATM   33  C   UNK     0       2.630 -10.125  18.062  0.00  0.00     0.070 C 
HETATM   34  N   UNK     0       0.682  -8.297  17.438  0.00  0.00    -0.304 N 
HETATM   35  HN  UNK     0       0.820  -8.255  16.429  1.00  0.00     0.186 HD
HETATM   36  HN  UNK     0      -1.038  -6.840  17.860  1.00  0.00     0.186 HD
ENDBRANCH  23  25
ENDBRANCH  17  23
ENDBRANCH   1  15
TORSDOF 7
ENDMDL
