MODEL 5
REMARK VINA RESULT:      -7.7      8.182     12.957
REMARK  7 active torsions:
REMARK  status: ('A' for Active; 'I' for Inactive)
REMARK    1  A    between atoms: N_1  and  C_5 
REMARK    2  A    between atoms: N_1  and  C_6 
REMARK    3  A    between atoms: C_9  and  N_23 
REMARK    4  A    between atoms: C_10  and  N_23 
REMARK    5  A    between atoms: C_15  and  O_36 
REMARK    6  A    between atoms: O_18  and  C_19 
REMARK    7  A    between atoms: C_34  and  O_35 
ROOT
HETATM    1  N   UNK     0      -1.343  -4.174  24.290  0.00  0.00    -0.199 N 
HETATM    2  HN  UNK     0      -0.530  -3.861  24.819  1.00  0.00     0.183 HD
ENDROOT
BRANCH   1   3
HETATM    3  C   UNK     0      -2.281  -3.140  23.639  0.00  0.00     0.016 A 
HETATM    4  C   UNK     0      -3.126  -2.203  24.523  0.00  0.00     0.120 A 
HETATM    5  C   UNK     0      -4.065  -1.170  23.872  0.00  0.00     0.086 A 
HETATM    6  C   UNK     0      -4.158  -1.074  22.337  0.00  0.00     0.127 A 
HETATM    7  C   UNK     0      -3.313  -2.011  21.454  0.00  0.00     0.086 A 
HETATM    8  C   UNK     0      -2.375  -3.044  22.104  0.00  0.00     0.120 A 
BRANCH   5   9
HETATM    9  O   UNK     0      -4.909  -0.233  24.755  0.00  0.00    -0.357 OA
HETATM   10  C   UNK     0      -4.359   1.148  25.157  0.00  0.00     0.209 C 
ENDBRANCH   5   9
BRANCH   6  11
HETATM   11  O   UNK     0      -5.096  -0.040  21.687  0.00  0.00    -0.351 OA
HETATM   12  C   UNK     0      -4.605   1.399  21.441  0.00  0.00     0.210 C 
ENDBRANCH   6  11
BRANCH   7  13
HETATM   13  O   UNK     0      -3.407  -1.914  19.920  0.00  0.00    -0.357 OA
HETATM   14  C   UNK     0      -2.550  -0.885  19.160  0.00  0.00     0.209 C 
ENDBRANCH   7  13
ENDBRANCH   1   3
BRANCH   1  15
HETATM   15  C   UNK     0      -1.633  -5.679  24.140  0.00  0.00     0.679 A 
HETATM   16  N   UNK     0      -0.617  -6.592  23.429  0.00  0.00    -0.180 N 
HETATM   17  C   UNK     0      -0.907  -8.096  23.280  0.00  0.00     0.100 A 
HETATM   18  HN  UNK     0       0.248  -6.200  23.058  1.00  0.00     0.185 HD
HETATM   19  C   UNK     0      -2.213  -8.689  23.841  0.00  0.00     0.097 A 
HETATM   20  C   UNK     0      -3.230  -7.775  24.552  0.00  0.00     0.145 A 
HETATM   21  N   UNK     0      -2.939  -6.270  24.701  0.00  0.00    -0.226 N 
HETATM   22  HN  UNK     0      -3.612  -5.665  25.172  1.00  0.00     0.177 HD
BRANCH  17  23
HETATM   23  N   UNK     0       0.109  -9.010  22.569  0.00  0.00    -0.347 N 
HETATM   24  C   UNK     0       0.860 -10.093  23.365  0.00  0.00     0.157 C 
BRANCH  23  25
HETATM   25  C   UNK     0       0.375  -8.839  21.062  0.00  0.00    -0.004 A 
HETATM   26  C   UNK     0       1.561  -9.568  20.401  0.00  0.00     0.111 A 
HETATM   27  C   UNK     0       1.826  -9.397  18.894  0.00  0.00     0.039 A 
HETATM   28  C   UNK     0       0.906  -8.498  18.047  0.00  0.00    -0.010 A 
HETATM   29  N   UNK     0       2.907  -9.981  17.966  0.00  0.00    -0.304 N 
HETATM   30  C   UNK     0      -0.279  -7.770  18.707  0.00  0.00     0.048 A 
HETATM   31  C   UNK     0       1.418  -8.527  16.595  0.00  0.00     0.030 A 
HETATM   32  C   UNK     0      -0.545  -7.941  20.214  0.00  0.00     0.057 A 
HETATM   33  C   UNK     0       0.803  -7.772  15.403  0.00  0.00     0.070 C 
HETATM   34  N   UNK     0       2.655  -9.443  16.545  0.00  0.00    -0.304 N 
HETATM   35  HN  UNK     0       3.210  -9.657  15.716  1.00  0.00     0.186 HD
HETATM   36  HN  UNK     0       3.658 -10.613  18.243  1.00  0.00     0.186 HD
ENDBRANCH  23  25
ENDBRANCH  17  23
ENDBRANCH   1  15
TORSDOF 7
ENDMDL
