MODEL 1
REMARK VINA RESULT:      -8.2      0.000      0.000
REMARK  7 active torsions:
REMARK  status: ('A' for Active; 'I' for Inactive)
REMARK    1  A    between atoms: N_1  and  C_5 
REMARK    2  A    between atoms: N_1  and  C_6 
REMARK    3  A    between atoms: C_9  and  N_23 
REMARK    4  A    between atoms: C_10  and  N_23 
REMARK    5  A    between atoms: C_15  and  O_36 
REMARK    6  A    between atoms: O_18  and  C_19 
REMARK    7  A    between atoms: C_34  and  O_35 
ROOT
HETATM    1  N   UNK     0       4.713  -4.490  10.733  0.00  0.00    -0.199 N 
HETATM    2  HN  UNK     0       5.533  -4.612  11.327  1.00  0.00     0.183 HD
ENDROOT
BRANCH   1   3
HETATM    3  C   UNK     0       4.742  -3.472   9.578  0.00  0.00     0.016 A 
HETATM    4  C   UNK     0       3.437  -3.093   8.853  0.00  0.00     0.120 A 
HETATM    5  C   UNK     0       3.466  -2.075   7.698  0.00  0.00     0.086 A 
HETATM    6  C   UNK     0       4.800  -1.437   7.268  0.00  0.00     0.127 A 
HETATM    7  C   UNK     0       6.105  -1.816   7.992  0.00  0.00     0.086 A 
HETATM    8  C   UNK     0       6.076  -2.834   9.148  0.00  0.00     0.120 A 
BRANCH   5   9
HETATM    9  O   UNK     0       2.162  -1.695   6.973  0.00  0.00    -0.357 OA
HETATM   10  C   UNK     0       1.211  -0.655   7.595  0.00  0.00     0.209 C 
ENDBRANCH   5   9
BRANCH   6  11
HETATM   11  O   UNK     0       4.829  -0.419   6.112  0.00  0.00    -0.351 OA
HETATM   12  C   UNK     0       4.560   1.072   6.392  0.00  0.00     0.210 C 
ENDBRANCH   6  11
BRANCH   7  13
HETATM   13  O   UNK     0       7.438  -1.178   7.562  0.00  0.00    -0.357 OA
HETATM   14  C   UNK     0       7.961   0.076   8.286  0.00  0.00     0.209 C 
ENDBRANCH   7  13
ENDBRANCH   1   3
BRANCH   1  15
HETATM   15  C   UNK     0       3.444  -5.325  10.992  0.00  0.00     0.679 A 
HETATM   16  N   UNK     0       2.661  -5.148  12.306  0.00  0.00    -0.180 N 
HETATM   17  C   UNK     0       1.393  -5.982  12.565  0.00  0.00     0.100 A 
HETATM   18  HN  UNK     0       2.982  -4.478  13.005  1.00  0.00     0.185 HD
HETATM   19  C   UNK     0       0.908  -6.994  11.510  0.00  0.00     0.097 A 
HETATM   20  C   UNK     0       1.692  -7.171  10.197  0.00  0.00     0.145 A 
HETATM   21  N   UNK     0       2.960  -6.337   9.938  0.00  0.00    -0.226 N 
HETATM   22  HN  UNK     0       3.479  -6.454   9.067  1.00  0.00     0.177 HD
BRANCH  17  23
HETATM   23  N   UNK     0       0.610  -5.804  13.879  0.00  0.00    -0.347 N 
HETATM   24  C   UNK     0      -0.440  -4.685  14.005  0.00  0.00     0.157 C 
BRANCH  23  25
HETATM   25  C   UNK     0       0.876  -6.747  15.068  0.00  0.00    -0.004 A 
HETATM   26  C   UNK     0       2.133  -7.638  15.078  0.00  0.00     0.111 A 
HETATM   27  C   UNK     0       2.398  -8.579  16.267  0.00  0.00     0.039 A 
HETATM   28  C   UNK     0       1.408  -8.631  17.445  0.00  0.00    -0.010 A 
HETATM   29  N   UNK     0       3.541  -9.570  16.561  0.00  0.00    -0.304 N 
HETATM   30  C   UNK     0       0.152  -7.741  17.435  0.00  0.00     0.048 A 
HETATM   31  C   UNK     0       1.939  -9.654  18.468  0.00  0.00     0.030 A 
HETATM   32  C   UNK     0      -0.114  -6.798  16.246  0.00  0.00     0.057 A 
HETATM   33  C   UNK     0       1.269 -10.030  19.802  0.00  0.00     0.070 C 
HETATM   34  N   UNK     0       3.256 -10.234  17.921  0.00  0.00    -0.304 N 
HETATM   35  HN  UNK     0       3.839 -10.935  18.379  1.00  0.00     0.186 HD
HETATM   36  HN  UNK     0       4.344  -9.754  15.960  1.00  0.00     0.186 HD
ENDBRANCH  23  25
ENDBRANCH  17  23
ENDBRANCH   1  15
TORSDOF 7
ENDMDL
