MODEL 19
REMARK VINA RESULT:      -5.8     11.870     13.532
REMARK  7 active torsions:
REMARK  status: ('A' for Active; 'I' for Inactive)
REMARK    1  A    between atoms: N_1  and  C_5 
REMARK    2  A    between atoms: N_1  and  C_6 
REMARK    3  A    between atoms: C_9  and  N_23 
REMARK    4  A    between atoms: C_10  and  N_23 
REMARK    5  A    between atoms: C_15  and  O_36 
REMARK    6  A    between atoms: O_18  and  C_19 
REMARK    7  A    between atoms: C_34  and  O_35 
ROOT
HETATM    1  N   UNK     0      -0.644  -4.470  22.256  0.00  0.00    -0.199 N 
HETATM    2  HN  UNK     0       0.050  -4.858  21.617  1.00  0.00     0.183 HD
ENDROOT
BRANCH   1   3
HETATM    3  C   UNK     0      -1.384  -3.169  21.892  0.00  0.00     0.016 A 
HETATM    4  C   UNK     0      -2.920  -3.164  21.778  0.00  0.00     0.120 A 
HETATM    5  C   UNK     0      -3.661  -1.864  21.414  0.00  0.00     0.086 A 
HETATM    6  C   UNK     0      -2.865  -0.568  21.165  0.00  0.00     0.127 A 
HETATM    7  C   UNK     0      -1.329  -0.574  21.279  0.00  0.00     0.086 A 
HETATM    8  C   UNK     0      -0.589  -1.874  21.643  0.00  0.00     0.120 A 
BRANCH   5   9
HETATM    9  O   UNK     0      -5.196  -1.858  21.300  0.00  0.00    -0.357 OA
HETATM   10  C   UNK     0      -6.056  -1.442  22.508  0.00  0.00     0.209 C 
ENDBRANCH   5   9
BRANCH   6  11
HETATM   11  O   UNK     0      -3.606   0.732  20.801  0.00  0.00    -0.351 OA
HETATM   12  C   UNK     0      -4.161   1.639  21.915  0.00  0.00     0.210 C 
ENDBRANCH   6  11
BRANCH   7  13
HETATM   13  O   UNK     0      -0.535   0.721  21.030  0.00  0.00    -0.357 OA
HETATM   14  C   UNK     0      -0.490   1.818  22.111  0.00  0.00     0.209 C 
ENDBRANCH   7  13
ENDBRANCH   1   3
BRANCH   1  15
HETATM   15  C   UNK     0      -0.950  -5.184  23.586  0.00  0.00     0.679 A 
HETATM   16  N   UNK     0      -2.001  -6.309  23.631  0.00  0.00    -0.180 N 
HETATM   17  C   UNK     0      -2.307  -7.024  24.959  0.00  0.00     0.100 A 
HETATM   18  HN  UNK     0      -2.493  -6.581  22.780  1.00  0.00     0.185 HD
HETATM   19  C   UNK     0      -1.563  -6.613  26.244  0.00  0.00     0.097 A 
HETATM   20  C   UNK     0      -0.513  -5.488  26.199  0.00  0.00     0.145 A 
HETATM   21  N   UNK     0      -0.206  -4.774  24.869  0.00  0.00    -0.226 N 
HETATM   22  HN  UNK     0       0.490  -4.028  24.839  1.00  0.00     0.177 HD
BRANCH  17  23
HETATM   23  N   UNK     0      -3.358  -8.149  25.004  0.00  0.00    -0.347 N 
HETATM   24  C   UNK     0      -4.846  -7.822  24.785  0.00  0.00     0.157 C 
BRANCH  23  25
HETATM   25  C   UNK     0      -2.920  -9.602  25.269  0.00  0.00    -0.004 A 
HETATM   26  C   UNK     0      -1.426  -9.937  25.438  0.00  0.00     0.111 A 
HETATM   27  C   UNK     0      -0.988 -11.389  25.703  0.00  0.00     0.039 A 
HETATM   28  C   UNK     0      -2.044 -12.506  25.798  0.00  0.00    -0.010 A 
HETATM   29  N   UNK     0       0.399 -12.025  25.912  0.00  0.00    -0.304 N 
HETATM   30  C   UNK     0      -3.537 -12.172  25.629  0.00  0.00     0.048 A 
HETATM   31  C   UNK     0      -1.309 -13.833  26.066  0.00  0.00     0.030 A 
HETATM   32  C   UNK     0      -3.975 -10.719  25.364  0.00  0.00     0.057 A 
HETATM   33  C   UNK     0      -1.968 -15.215  26.234  0.00  0.00     0.070 C 
HETATM   34  N   UNK     0       0.200 -13.536  26.136  0.00  0.00    -0.304 N 
HETATM   35  HN  UNK     0       0.939 -14.219  26.302  1.00  0.00     0.186 HD
HETATM   36  HN  UNK     0       1.292 -11.532  25.903  1.00  0.00     0.186 HD
ENDBRANCH  23  25
ENDBRANCH  17  23
ENDBRANCH   1  15
TORSDOF 7
ENDMDL
