MODEL 12
REMARK VINA RESULT:      -6.3      9.694     14.133
REMARK  7 active torsions:
REMARK  status: ('A' for Active; 'I' for Inactive)
REMARK    1  A    between atoms: N_1  and  C_5 
REMARK    2  A    between atoms: N_1  and  C_6 
REMARK    3  A    between atoms: C_9  and  N_23 
REMARK    4  A    between atoms: C_10  and  N_23 
REMARK    5  A    between atoms: C_15  and  O_36 
REMARK    6  A    between atoms: O_18  and  C_19 
REMARK    7  A    between atoms: C_34  and  O_35 
ROOT
HETATM    1  N   UNK     0      -2.361  -2.905  23.414  0.00  0.00    -0.199 N 
HETATM    2  HN  UNK     0      -1.477  -2.552  23.050  1.00  0.00     0.183 HD
ENDROOT
BRANCH   1   3
HETATM    3  C   UNK     0      -3.678  -2.185  23.068  0.00  0.00     0.016 A 
HETATM    4  C   UNK     0      -3.743  -0.646  23.088  0.00  0.00     0.120 A 
HETATM    5  C   UNK     0      -5.060   0.074  22.742  0.00  0.00     0.086 A 
HETATM    6  C   UNK     0      -6.312  -0.745  22.377  0.00  0.00     0.127 A 
HETATM    7  C   UNK     0      -6.247  -2.284  22.357  0.00  0.00     0.086 A 
HETATM    8  C   UNK     0      -4.930  -3.004  22.702  0.00  0.00     0.120 A 
BRANCH   5   9
HETATM    9  O   UNK     0      -5.125   1.612  22.762  0.00  0.00    -0.357 OA
HETATM   10  C   UNK     0      -5.229   2.395  21.440  0.00  0.00     0.209 C 
ENDBRANCH   5   9
BRANCH   6  11
HETATM   11  O   UNK     0      -7.629  -0.025  22.031  0.00  0.00    -0.351 OA
HETATM   12  C   UNK     0      -8.743   0.091  23.088  0.00  0.00     0.210 C 
ENDBRANCH   6  11
BRANCH   7  13
HETATM   13  O   UNK     0      -7.499  -3.102  21.991  0.00  0.00    -0.357 OA
HETATM   14  C   UNK     0      -7.695  -4.513  22.576  0.00  0.00     0.209 C 
ENDBRANCH   7  13
ENDBRANCH   1   3
BRANCH   1  15
HETATM   15  C   UNK     0      -2.381  -4.158  24.308  0.00  0.00     0.679 A 
HETATM   16  N   UNK     0      -1.720  -5.461  23.823  0.00  0.00    -0.180 N 
HETATM   17  C   UNK     0      -1.739  -6.714  24.717  0.00  0.00     0.100 A 
HETATM   18  HN  UNK     0      -1.269  -5.494  22.909  1.00  0.00     0.185 HD
HETATM   19  C   UNK     0      -2.420  -6.664  26.098  0.00  0.00     0.097 A 
HETATM   20  C   UNK     0      -3.081  -5.361  26.583  0.00  0.00     0.145 A 
HETATM   21  N   UNK     0      -3.062  -4.108  25.688  0.00  0.00    -0.226 N 
HETATM   22  HN  UNK     0      -3.499  -3.245  26.010  1.00  0.00     0.177 HD
BRANCH  17  23
HETATM   23  N   UNK     0      -1.078  -8.017  24.231  0.00  0.00    -0.347 N 
HETATM   24  C   UNK     0      -0.917  -9.206  25.197  0.00  0.00     0.157 C 
BRANCH  23  25
HETATM   25  C   UNK     0      -0.577  -8.132  22.779  0.00  0.00    -0.004 A 
HETATM   26  C   UNK     0       0.357  -9.288  22.375  0.00  0.00     0.111 A 
HETATM   27  C   UNK     0       0.856  -9.403  20.923  0.00  0.00     0.039 A 
HETATM   28  C   UNK     0       0.423  -8.361  19.875  0.00  0.00    -0.010 A 
HETATM   29  N   UNK     0       1.778 -10.422  20.228  0.00  0.00    -0.304 N 
HETATM   30  C   UNK     0      -0.511  -7.205  20.278  0.00  0.00     0.048 A 
HETATM   31  C   UNK     0       1.077  -8.737  18.532  0.00  0.00     0.030 A 
HETATM   32  C   UNK     0      -1.011  -7.091  21.731  0.00  0.00     0.057 A 
HETATM   33  C   UNK     0       0.920  -7.973  17.204  0.00  0.00     0.070 C 
HETATM   34  N   UNK     0       1.914 -10.011  18.750  0.00  0.00    -0.304 N 
HETATM   35  HN  UNK     0       2.462 -10.497  18.041  1.00  0.00     0.186 HD
HETATM   36  HN  UNK     0       2.221 -11.228  20.669  1.00  0.00     0.186 HD
ENDBRANCH  23  25
ENDBRANCH  17  23
ENDBRANCH   1  15
TORSDOF 7
ENDMDL
