MODEL 15
REMARK VINA RESULT:      -6.0      9.889     13.665
REMARK  7 active torsions:
REMARK  status: ('A' for Active; 'I' for Inactive)
REMARK    1  A    between atoms: N_1  and  C_5 
REMARK    2  A    between atoms: N_1  and  C_6 
REMARK    3  A    between atoms: C_9  and  N_23 
REMARK    4  A    between atoms: C_10  and  N_23 
REMARK    5  A    between atoms: C_15  and  O_36 
REMARK    6  A    between atoms: O_18  and  C_19 
REMARK    7  A    between atoms: C_34  and  O_35 
ROOT
HETATM    1  N   UNK     0      -2.145  -2.012  22.354  0.00  0.00    -0.199 N 
HETATM    2  HN  UNK     0      -1.419  -2.118  21.646  1.00  0.00     0.183 HD
ENDROOT
BRANCH   1   3
HETATM    3  C   UNK     0      -2.891  -0.672  22.498  0.00  0.00     0.016 A 
HETATM    4  C   UNK     0      -4.286  -0.496  21.869  0.00  0.00     0.120 A 
HETATM    5  C   UNK     0      -5.032   0.844  22.014  0.00  0.00     0.086 A 
HETATM    6  C   UNK     0      -4.383   2.007  22.787  0.00  0.00     0.127 A 
HETATM    7  C   UNK     0      -2.988   1.830  23.417  0.00  0.00     0.086 A 
HETATM    8  C   UNK     0      -2.242   0.491  23.272  0.00  0.00     0.120 A 
BRANCH   5   9
HETATM    9  O   UNK     0      -6.426   1.021  21.385  0.00  0.00    -0.357 OA
HETATM   10  C   UNK     0      -7.646   0.316  22.007  0.00  0.00     0.209 C 
ENDBRANCH   5   9
BRANCH   6  11
HETATM   11  O   UNK     0      -5.128   3.346  22.932  0.00  0.00    -0.351 OA
HETATM   12  C   UNK     0      -6.301   3.472  23.923  0.00  0.00     0.210 C 
ENDBRANCH   6  11
BRANCH   7  13
HETATM   13  O   UNK     0      -2.340   2.993  24.190  0.00  0.00    -0.357 OA
HETATM   14  C   UNK     0      -2.589   3.146  25.702  0.00  0.00     0.209 C 
ENDBRANCH   7  13
ENDBRANCH   1   3
BRANCH   1  15
HETATM   15  C   UNK     0      -2.497  -3.193  23.278  0.00  0.00     0.679 A 
HETATM   16  N   UNK     0      -1.695  -4.504  23.191  0.00  0.00    -0.180 N 
HETATM   17  C   UNK     0      -2.046  -5.685  24.115  0.00  0.00     0.100 A 
HETATM   18  HN  UNK     0      -0.931  -4.591  22.521  1.00  0.00     0.185 HD
HETATM   19  C   UNK     0      -3.200  -5.554  25.126  0.00  0.00     0.097 A 
HETATM   20  C   UNK     0      -4.002  -4.242  25.214  0.00  0.00     0.145 A 
HETATM   21  N   UNK     0      -3.651  -3.062  24.289  0.00  0.00    -0.226 N 
HETATM   22  HN  UNK     0      -4.182  -2.193  24.347  1.00  0.00     0.177 HD
BRANCH  17  23
HETATM   23  N   UNK     0      -1.244  -6.996  24.027  0.00  0.00    -0.347 N 
HETATM   24  C   UNK     0      -1.002  -7.837  25.294  0.00  0.00     0.157 C 
BRANCH  23  25
HETATM   25  C   UNK     0      -0.683  -7.467  22.672  0.00  0.00    -0.004 A 
HETATM   26  C   UNK     0       0.201  -8.727  22.600  0.00  0.00     0.111 A 
HETATM   27  C   UNK     0       0.761  -9.197  21.245  0.00  0.00     0.039 A 
HETATM   28  C   UNK     0       0.437  -8.409  19.963  0.00  0.00    -0.010 A 
HETATM   29  N   UNK     0       1.654 -10.391  20.858  0.00  0.00    -0.304 N 
HETATM   30  C   UNK     0      -0.446  -7.150  20.034  0.00  0.00     0.048 A 
HETATM   31  C   UNK     0       1.131  -9.115  18.782  0.00  0.00     0.030 A 
HETATM   32  C   UNK     0      -1.007  -6.679  21.389  0.00  0.00     0.057 A 
HETATM   33  C   UNK     0       1.081  -8.674  17.308  0.00  0.00     0.070 C 
HETATM   34  N   UNK     0       1.882 -10.340  19.336  0.00  0.00    -0.304 N 
HETATM   35  HN  UNK     0       2.434 -11.002  18.790  1.00  0.00     0.186 HD
HETATM   36  HN  UNK     0       2.028 -11.092  21.498  1.00  0.00     0.186 HD
ENDBRANCH  23  25
ENDBRANCH  17  23
ENDBRANCH   1  15
TORSDOF 7
ENDMDL
