MODEL 6
REMARK VINA RESULT:      -7.7      8.262     13.063
REMARK  7 active torsions:
REMARK  status: ('A' for Active; 'I' for Inactive)
REMARK    1  A    between atoms: N_1  and  C_5 
REMARK    2  A    between atoms: N_1  and  C_6 
REMARK    3  A    between atoms: C_9  and  N_23 
REMARK    4  A    between atoms: C_10  and  N_23 
REMARK    5  A    between atoms: C_15  and  O_36 
REMARK    6  A    between atoms: O_18  and  C_19 
REMARK    7  A    between atoms: C_34  and  O_35 
ROOT
HETATM    1  N   UNK     0      -1.123  -4.237  24.611  0.00  0.00    -0.199 N 
HETATM    2  HN  UNK     0      -0.320  -3.976  25.183  1.00  0.00     0.183 HD
ENDROOT
BRANCH   1   3
HETATM    3  C   UNK     0      -1.992  -3.144  23.960  0.00  0.00     0.016 A 
HETATM    4  C   UNK     0      -2.147  -3.096  22.428  0.00  0.00     0.120 A 
HETATM    5  C   UNK     0      -3.016  -2.003  21.777  0.00  0.00     0.086 A 
HETATM    6  C   UNK     0      -3.729  -0.960  22.657  0.00  0.00     0.127 A 
HETATM    7  C   UNK     0      -3.574  -1.009  24.189  0.00  0.00     0.086 A 
HETATM    8  C   UNK     0      -2.705  -2.101  24.840  0.00  0.00     0.120 A 
BRANCH   5   9
HETATM    9  O   UNK     0      -3.172  -1.954  20.246  0.00  0.00    -0.357 OA
HETATM   10  C   UNK     0      -2.387  -0.914  19.425  0.00  0.00     0.209 C 
ENDBRANCH   5   9
BRANCH   6  11
HETATM   11  O   UNK     0      -4.598   0.132  22.006  0.00  0.00    -0.351 OA
HETATM   12  C   UNK     0      -4.007   1.530  21.740  0.00  0.00     0.210 C 
ENDBRANCH   6  11
BRANCH   7  13
HETATM   13  O   UNK     0      -4.287   0.034  25.068  0.00  0.00    -0.357 OA
HETATM   14  C   UNK     0      -3.567   1.342  25.449  0.00  0.00     0.209 C 
ENDBRANCH   7  13
ENDBRANCH   1   3
BRANCH   1  15
HETATM   15  C   UNK     0      -1.467  -5.723  24.398  0.00  0.00     0.679 A 
HETATM   16  N   UNK     0      -0.482  -6.642  23.653  0.00  0.00    -0.180 N 
HETATM   17  C   UNK     0      -0.825  -8.127  23.440  0.00  0.00     0.100 A 
HETATM   18  HN  UNK     0       0.399  -6.267  23.300  1.00  0.00     0.185 HD
HETATM   19  C   UNK     0      -2.155  -8.694  23.972  0.00  0.00     0.097 A 
HETATM   20  C   UNK     0      -3.140  -7.775  24.717  0.00  0.00     0.145 A 
HETATM   21  N   UNK     0      -2.796  -6.289  24.930  0.00  0.00    -0.226 N 
HETATM   22  HN  UNK     0      -3.449  -5.680  25.423  1.00  0.00     0.177 HD
BRANCH  17  23
HETATM   23  N   UNK     0       0.161  -9.047  22.695  0.00  0.00    -0.347 N 
HETATM   24  C   UNK     0       0.910 -10.153  23.459  0.00  0.00     0.157 C 
BRANCH  23  25
HETATM   25  C   UNK     0       0.396  -8.859  21.184  0.00  0.00    -0.004 A 
HETATM   26  C   UNK     0       1.562  -9.589  20.490  0.00  0.00     0.111 A 
HETATM   27  C   UNK     0       1.797  -9.401  18.980  0.00  0.00     0.039 A 
HETATM   28  C   UNK     0       0.868  -8.484  18.164  0.00  0.00    -0.010 A 
HETATM   29  N   UNK     0       2.854  -9.982  18.022  0.00  0.00    -0.304 N 
HETATM   30  C   UNK     0      -0.298  -7.755  18.857  0.00  0.00     0.048 A 
HETATM   31  C   UNK     0       1.350  -8.499  16.701  0.00  0.00     0.030 A 
HETATM   32  C   UNK     0      -0.533  -7.943  20.367  0.00  0.00     0.057 A 
HETATM   33  C   UNK     0       0.716  -7.724  15.531  0.00  0.00     0.070 C 
HETATM   34  N   UNK     0       2.577  -9.424  16.614  0.00  0.00    -0.304 N 
HETATM   35  HN  UNK     0       3.113  -9.632  15.771  1.00  0.00     0.186 HD
HETATM   36  HN  UNK     0       3.605 -10.624  18.276  1.00  0.00     0.186 HD
ENDBRANCH  23  25
ENDBRANCH  17  23
ENDBRANCH   1  15
TORSDOF 7
ENDMDL
