MODEL 11
REMARK VINA RESULT:      -6.4      2.016      4.034
REMARK  7 active torsions:
REMARK  status: ('A' for Active; 'I' for Inactive)
REMARK    1  A    between atoms: N_1  and  C_5 
REMARK    2  A    between atoms: N_1  and  C_6 
REMARK    3  A    between atoms: C_9  and  N_23 
REMARK    4  A    between atoms: C_10  and  N_23 
REMARK    5  A    between atoms: C_15  and  O_36 
REMARK    6  A    between atoms: O_18  and  C_19 
REMARK    7  A    between atoms: C_34  and  O_35 
ROOT
HETATM    1  N   UNK     0       3.069  -6.287  11.200  0.00  0.00    -0.199 N 
HETATM    2  HN  UNK     0       2.968  -7.148  10.662  1.00  0.00     0.183 HD
ENDROOT
BRANCH   1   3
HETATM    3  C   UNK     0       3.767  -5.065  10.575  0.00  0.00     0.016 A 
HETATM    4  C   UNK     0       5.246  -4.776  10.895  0.00  0.00     0.120 A 
HETATM    5  C   UNK     0       5.944  -3.554  10.270  0.00  0.00     0.086 A 
HETATM    6  C   UNK     0       5.163  -2.621   9.325  0.00  0.00     0.127 A 
HETATM    7  C   UNK     0       3.685  -2.910   9.005  0.00  0.00     0.086 A 
HETATM    8  C   UNK     0       2.987  -4.133   9.630  0.00  0.00     0.120 A 
BRANCH   5   9
HETATM    9  O   UNK     0       7.422  -3.264  10.589  0.00  0.00    -0.357 OA
HETATM   10  C   UNK     0       8.477  -3.321   9.469  0.00  0.00     0.209 C 
ENDBRANCH   5   9
BRANCH   6  11
HETATM   11  O   UNK     0       5.861  -1.399   8.700  0.00  0.00    -0.351 OA
HETATM   12  C   UNK     0       6.594  -1.536   7.352  0.00  0.00     0.210 C 
ENDBRANCH   6  11
BRANCH   7  13
HETATM   13  O   UNK     0       2.905  -1.978   8.060  0.00  0.00    -0.357 OA
HETATM   14  C   UNK     0       3.181  -2.010   6.545  0.00  0.00     0.209 C 
ENDBRANCH   7  13
ENDBRANCH   1   3
BRANCH   1  15
HETATM   15  C   UNK     0       2.524  -6.210  12.638  0.00  0.00     0.679 A 
HETATM   16  N   UNK     0       2.690  -7.410  13.590  0.00  0.00    -0.180 N 
HETATM   17  C   UNK     0       2.145  -7.333  15.028  0.00  0.00     0.100 A 
HETATM   18  HN  UNK     0       3.161  -8.255  13.268  1.00  0.00     0.185 HD
HETATM   19  C   UNK     0       1.434  -6.057  15.515  0.00  0.00     0.097 A 
HETATM   20  C   UNK     0       1.267  -4.858  14.563  0.00  0.00     0.145 A 
HETATM   21  N   UNK     0       1.813  -4.935  13.125  0.00  0.00    -0.226 N 
HETATM   22  HN  UNK     0       1.703  -4.140  12.494  1.00  0.00     0.177 HD
BRANCH  17  23
HETATM   23  N   UNK     0       2.311  -8.533  15.979  0.00  0.00    -0.347 N 
HETATM   24  C   UNK     0       3.129  -9.759  15.537  0.00  0.00     0.157 C 
BRANCH  23  25
HETATM   25  C   UNK     0       1.658  -8.505  17.374  0.00  0.00    -0.004 A 
HETATM   26  C   UNK     0       2.270  -9.323  18.527  0.00  0.00     0.111 A 
HETATM   27  C   UNK     0       1.617  -9.295  19.921  0.00  0.00     0.039 A 
HETATM   28  C   UNK     0       0.352  -8.450  20.163  0.00  0.00    -0.010 A 
HETATM   29  N   UNK     0       1.985  -9.990  21.245  0.00  0.00    -0.304 N 
HETATM   30  C   UNK     0      -0.259  -7.633  19.010  0.00  0.00     0.048 A 
HETATM   31  C   UNK     0      -0.061  -8.623  21.636  0.00  0.00     0.030 A 
HETATM   32  C   UNK     0       0.394  -7.660  17.616  0.00  0.00     0.057 A 
HETATM   33  C   UNK     0      -1.270  -7.960  22.321  0.00  0.00     0.070 C 
HETATM   34  N   UNK     0       0.948  -9.575  22.305  0.00  0.00    -0.304 N 
HETATM   35  HN  UNK     0       0.932  -9.877  23.279  1.00  0.00     0.186 HD
HETATM   36  HN  UNK     0       2.777 -10.616  21.394  1.00  0.00     0.186 HD
ENDBRANCH  23  25
ENDBRANCH  17  23
ENDBRANCH   1  15
TORSDOF 7
ENDMDL
