MODEL 1
REMARK VINA RESULT:      -8.6      0.000      0.000
REMARK  6 active torsions:
REMARK  status: ('A' for Active; 'I' for Inactive)
REMARK    1  A    between atoms: C_3  and  S_21 
REMARK    2  A    between atoms: C_5  and  N_10 
REMARK    3  A    between atoms: C_9  and  N_10 
REMARK    4  A    between atoms: C_14  and  N_17 
REMARK    5  A    between atoms: N_17  and  C_18 
REMARK    6  A    between atoms: S_21  and  N_33 
ROOT
HETATM    1  C   UNK     0      -2.363  -3.018  20.868  0.00  0.00     0.040 A 
HETATM    2  C   UNK     0      -2.166  -1.502  20.681  0.00  0.00    -0.064 A 
HETATM    3  C   UNK     0      -1.791  -0.620  21.887  0.00  0.00     0.064 A 
HETATM    4  C   UNK     0      -1.612  -1.254  23.279  0.00  0.00     0.105 A 
HETATM    5  C   UNK     0      -1.809  -2.769  23.465  0.00  0.00     0.009 A 
HETATM    6  C   UNK     0      -2.184  -3.651  22.260  0.00  0.00     0.057 A 
HETATM    7  C   UNK     0      -2.344  -0.868  19.290  0.00  0.00     0.044 C 
ENDROOT
BRANCH   3   8
HETATM    8  S   UNK     0      -1.594   0.896  21.700  0.00  0.00     0.253 S 
HETATM    9  O   UNK     0      -0.685   2.095  21.373  0.00  0.00    -0.201 OA
HETATM   10  O   UNK     0      -0.109   0.667  21.367  0.00  0.00    -0.201 OA
BRANCH   8  11
HETATM   11  N   UNK     0      -2.802   1.860  21.899  0.00  0.00    -0.324 N 
HETATM   12  HN2 UNK     0      -3.269   2.248  21.079  1.00  0.00     0.169 HD
HETATM   13  HN1 UNK     0      -3.112   2.091  22.842  1.00  0.00     0.169 HD
ENDBRANCH   8  11
ENDBRANCH   3   8
BRANCH   5  14
HETATM   14  N   UNK     0      -1.630  -3.404  24.857  0.00  0.00    -0.199 N 
HETATM   15  HN  UNK     0      -1.266  -2.845  25.629  1.00  0.00     0.183 HD
BRANCH  14  16
HETATM   16  C   UNK     0      -2.002  -4.881  25.084  0.00  0.00     0.679 A 
HETATM   17  N   UNK     0      -3.222  -5.244  25.952  0.00  0.00    -0.226 N 
HETATM   18  C   UNK     0      -3.593  -6.721  26.179  0.00  0.00     0.145 A 
HETATM   19  HN  UNK     0      -3.783  -4.506  26.376  1.00  0.00     0.177 HD
HETATM   20  C   UNK     0      -2.745  -7.835  25.538  0.00  0.00     0.097 A 
HETATM   21  C   UNK     0      -1.525  -7.473  24.671  0.00  0.00     0.100 A 
HETATM   22  N   UNK     0      -1.154  -5.995  24.444  0.00  0.00    -0.180 N 
HETATM   23  HN  UNK     0      -0.346  -5.755  23.870  1.00  0.00     0.185 HD
BRANCH  21  24
HETATM   24  N   UNK     0      -0.674  -8.591  24.029  0.00  0.00    -0.347 N 
HETATM   25  C   UNK     0      -0.231  -9.798  24.870  0.00  0.00     0.157 C 
BRANCH  24  26
HETATM   26  C   UNK     0      -0.276  -8.496  22.564  0.00  0.00    -0.004 A 
HETATM   27  C   UNK     0      -1.026  -7.524  21.617  0.00  0.00     0.057 A 
HETATM   28  C   UNK     0      -0.622  -7.429  20.134  0.00  0.00     0.048 A 
HETATM   29  C   UNK     0       0.527  -8.299  19.591  0.00  0.00    -0.010 A 
HETATM   30  C   UNK     0       1.278  -9.271  20.539  0.00  0.00     0.039 A 
HETATM   31  C   UNK     0       1.155  -8.427  18.177  0.00  0.00     0.032 A 
HETATM   32  C   UNK     0       0.874  -9.366  22.022  0.00  0.00     0.111 A 
HETATM   33  N   UNK     0       2.370 -10.000  19.711  0.00  0.00    -0.302 N 
HETATM   34  N   UNK     0       2.293  -9.478  18.252  0.00  0.00    -0.300 N 
HETATM   35  HN  UNK     0       3.023 -10.700  20.064  1.00  0.00     0.186 HD
HETATM   36  C   UNK     0       3.187  -9.924  17.086  0.00  0.00     0.177 C 
HETATM   37  C   UNK     0       0.729  -7.658  16.940  0.00  0.00     0.070 C 
ENDBRANCH  24  26
ENDBRANCH  21  24
ENDBRANCH  14  16
ENDBRANCH   5  14
TORSDOF 6
ENDMDL
MODEL 2
REMARK VINA RESULT:      -8.5      1.955      2.485
REMARK  6 active torsions:
REMARK  status: ('A' for Active; 'I' for Inactive)
REMARK    1  A    between atoms: C_3  and  S_21 
REMARK    2  A    between atoms: C_5  and  N_10 
REMARK    3  A    between atoms: C_9  and  N_10 
REMARK    4  A    between atoms: C_14  and  N_17 
REMARK    5  A    between atoms: N_17  and  C_18 
REMARK    6  A    between atoms: S_21  and  N_33 
ROOT
HETATM    1  C   UNK     0      -1.239  -2.440  21.083  0.00  0.00     0.040 A 
HETATM    2  C   UNK     0      -2.303  -1.452  20.567  0.00  0.00    -0.064 A 
HETATM    3  C   UNK     0      -3.542  -1.138  21.426  0.00  0.00     0.064 A 
HETATM    4  C   UNK     0      -3.718  -1.811  22.800  0.00  0.00     0.105 A 
HETATM    5  C   UNK     0      -2.655  -2.799  23.315  0.00  0.00     0.009 A 
HETATM    6  C   UNK     0      -1.416  -3.113  22.456  0.00  0.00     0.057 A 
HETATM    7  C   UNK     0      -2.127  -0.779  19.194  0.00  0.00     0.044 C 
ENDROOT
BRANCH   3   8
HETATM    8  S   UNK     0      -4.605  -0.149  20.911  0.00  0.00     0.253 S 
HETATM    9  O   UNK     0      -5.213   1.265  20.884  0.00  0.00    -0.201 OA
HETATM   10  O   UNK     0      -3.976   0.974  21.754  0.00  0.00    -0.201 OA
BRANCH   8  11
HETATM   11  N   UNK     0      -5.693  -0.642  19.910  0.00  0.00    -0.324 N 
HETATM   12  HN2 UNK     0      -6.094   0.021  19.246  1.00  0.00     0.169 HD
HETATM   13  HN1 UNK     0      -5.991  -1.617  19.929  1.00  0.00     0.169 HD
ENDBRANCH   8  11
ENDBRANCH   3   8
BRANCH   5  14
HETATM   14  N   UNK     0      -2.830  -3.472  24.689  0.00  0.00    -0.199 N 
HETATM   15  HN  UNK     0      -3.607  -3.203  25.293  1.00  0.00     0.183 HD
BRANCH  14  16
HETATM   16  C   UNK     0      -1.834  -4.552  25.150  0.00  0.00     0.679 A 
HETATM   17  N   UNK     0      -0.791  -4.225  26.235  0.00  0.00    -0.226 N 
HETATM   18  C   UNK     0       0.205  -5.304  26.697  0.00  0.00     0.145 A 
HETATM   19  HN  UNK     0      -0.761  -3.293  26.648  1.00  0.00     0.177 HD
HETATM   20  C   UNK     0       0.158  -6.711  26.074  0.00  0.00     0.097 A 
HETATM   21  C   UNK     0      -0.884  -7.039  24.989  0.00  0.00     0.100 A 
HETATM   22  N   UNK     0      -1.881  -5.959  24.527  0.00  0.00    -0.180 N 
HETATM   23  HN  UNK     0      -2.571  -6.176  23.809  1.00  0.00     0.185 HD
BRANCH  21  24
HETATM   24  N   UNK     0      -0.930  -8.451  24.364  0.00  0.00    -0.347 N 
HETATM   25  C   UNK     0      -1.595  -9.608  25.127  0.00  0.00     0.157 C 
BRANCH  24  26
HETATM   26  C   UNK     0      -0.318  -8.696  22.993  0.00  0.00    -0.004 A 
HETATM   27  C   UNK     0       0.785  -9.771  22.817  0.00  0.00     0.057 A 
HETATM   28  C   UNK     0       1.405 -10.019  21.429  0.00  0.00     0.048 A 
HETATM   29  C   UNK     0       0.928  -9.199  20.215  0.00  0.00    -0.010 A 
HETATM   30  C   UNK     0      -0.176  -8.123  20.391  0.00  0.00     0.039 A 
HETATM   31  C   UNK     0       1.349  -9.215  18.722  0.00  0.00     0.032 A 
HETATM   32  C   UNK     0      -0.795  -7.876  21.780  0.00  0.00     0.111 A 
HETATM   33  N   UNK     0      -0.438  -7.474  19.007  0.00  0.00    -0.302 N 
HETATM   34  N   UNK     0       0.504  -8.149  17.975  0.00  0.00    -0.300 N 
HETATM   35  HN  UNK     0      -1.111  -6.734  18.809  1.00  0.00     0.186 HD
HETATM   36  C   UNK     0       0.587  -7.819  16.478  0.00  0.00     0.177 C 
HETATM   37  C   UNK     0       2.401 -10.116  18.101  0.00  0.00     0.070 C 
ENDBRANCH  24  26
ENDBRANCH  21  24
ENDBRANCH  14  16
ENDBRANCH   5  14
TORSDOF 6
ENDMDL
MODEL 3
REMARK VINA RESULT:      -8.4      1.766      1.867
REMARK  6 active torsions:
REMARK  status: ('A' for Active; 'I' for Inactive)
REMARK    1  A    between atoms: C_3  and  S_21 
REMARK    2  A    between atoms: C_5  and  N_10 
REMARK    3  A    between atoms: C_9  and  N_10 
REMARK    4  A    between atoms: C_14  and  N_17 
REMARK    5  A    between atoms: N_17  and  C_18 
REMARK    6  A    between atoms: S_21  and  N_33 
ROOT
HETATM    1  C   UNK     0      -1.182  -2.591  21.428  0.00  0.00     0.040 A 
HETATM    2  C   UNK     0      -2.190  -1.589  20.835  0.00  0.00    -0.064 A 
HETATM    3  C   UNK     0      -3.521  -1.315  21.560  0.00  0.00     0.064 A 
HETATM    4  C   UNK     0      -3.844  -2.044  22.878  0.00  0.00     0.105 A 
HETATM    5  C   UNK     0      -2.836  -3.046  23.470  0.00  0.00     0.009 A 
HETATM    6  C   UNK     0      -1.505  -3.320  22.745  0.00  0.00     0.057 A 
HETATM    7  C   UNK     0      -1.868  -0.860  19.518  0.00  0.00     0.044 C 
ENDROOT
BRANCH   3   8
HETATM    8  S   UNK     0      -4.529  -0.313  20.968  0.00  0.00     0.253 S 
HETATM    9  O   UNK     0      -5.126   1.105  20.911  0.00  0.00    -0.201 OA
HETATM   10  O   UNK     0      -3.975   0.793  21.884  0.00  0.00    -0.201 OA
BRANCH   8  11
HETATM   11  N   UNK     0      -5.523  -0.782  19.864  0.00  0.00    -0.324 N 
HETATM   12  HN2 UNK     0      -6.454  -0.365  19.822  1.00  0.00     0.169 HD
HETATM   13  HN1 UNK     0      -5.235  -1.497  19.197  1.00  0.00     0.169 HD
ENDBRANCH   8  11
ENDBRANCH   3   8
BRANCH   5  14
HETATM   14  N   UNK     0      -3.159  -3.776  24.788  0.00  0.00    -0.199 N 
HETATM   15  HN  UNK     0      -4.019  -3.562  25.291  1.00  0.00     0.183 HD
BRANCH  14  16
HETATM   16  C   UNK     0      -2.181  -4.828  25.345  0.00  0.00     0.679 A 
HETATM   17  N   UNK     0      -1.468  -4.581  26.688  0.00  0.00    -0.226 N 
HETATM   18  C   UNK     0      -0.492  -5.632  27.245  0.00  0.00     0.145 A 
HETATM   19  HN  UNK     0      -1.643  -3.721  27.207  1.00  0.00     0.177 HD
HETATM   20  C   UNK     0      -0.228  -6.931  26.460  0.00  0.00     0.097 A 
HETATM   21  C   UNK     0      -0.941  -7.178  25.118  0.00  0.00     0.100 A 
HETATM   22  N   UNK     0      -1.918  -6.126  24.560  0.00  0.00    -0.180 N 
HETATM   23  HN  UNK     0      -2.391  -6.289  23.671  1.00  0.00     0.185 HD
BRANCH  21  24
HETATM   24  N   UNK     0      -0.676  -8.480  24.331  0.00  0.00    -0.347 N 
HETATM   25  C   UNK     0      -0.799  -9.842  25.034  0.00  0.00     0.157 C 
BRANCH  24  26
HETATM   26  C   UNK     0      -0.294  -8.416  22.860  0.00  0.00    -0.004 A 
HETATM   27  C   UNK     0      -1.004  -7.408  21.918  0.00  0.00     0.057 A 
HETATM   28  C   UNK     0      -0.617  -7.342  20.429  0.00  0.00     0.048 A 
HETATM   29  C   UNK     0       0.475  -8.278  19.875  0.00  0.00    -0.010 A 
HETATM   30  C   UNK     0       1.184  -9.286  20.817  0.00  0.00     0.039 A 
HETATM   31  C   UNK     0       1.073  -8.447  18.453  0.00  0.00     0.032 A 
HETATM   32  C   UNK     0       0.797  -9.351  22.306  0.00  0.00     0.111 A 
HETATM   33  N   UNK     0       2.221 -10.078  19.978  0.00  0.00    -0.302 N 
HETATM   34  N   UNK     0       2.152  -9.560  18.518  0.00  0.00    -0.300 N 
HETATM   35  HN  UNK     0       2.840 -10.811  20.326  1.00  0.00     0.186 HD
HETATM   36  C   UNK     0       3.003 -10.061  17.341  0.00  0.00     0.177 C 
HETATM   37  C   UNK     0       0.673  -7.662  17.217  0.00  0.00     0.070 C 
ENDBRANCH  24  26
ENDBRANCH  21  24
ENDBRANCH  14  16
ENDBRANCH   5  14
TORSDOF 6
ENDMDL
MODEL 4
REMARK VINA RESULT:      -8.3      1.765      1.806
REMARK  6 active torsions:
REMARK  status: ('A' for Active; 'I' for Inactive)
REMARK    1  A    between atoms: C_3  and  S_21 
REMARK    2  A    between atoms: C_5  and  N_10 
REMARK    3  A    between atoms: C_9  and  N_10 
REMARK    4  A    between atoms: C_14  and  N_17 
REMARK    5  A    between atoms: N_17  and  C_18 
REMARK    6  A    between atoms: S_21  and  N_33 
ROOT
HETATM    1  C   UNK     0      -1.299  -2.541  21.518  0.00  0.00     0.040 A 
HETATM    2  C   UNK     0      -2.290  -1.544  20.889  0.00  0.00    -0.064 A 
HETATM    3  C   UNK     0      -3.656  -1.293  21.554  0.00  0.00     0.064 A 
HETATM    4  C   UNK     0      -4.031  -2.038  22.849  0.00  0.00     0.105 A 
HETATM    5  C   UNK     0      -3.040  -3.035  23.477  0.00  0.00     0.009 A 
HETATM    6  C   UNK     0      -1.674  -3.286  22.812  0.00  0.00     0.057 A 
HETATM    7  C   UNK     0      -1.915  -0.799  19.595  0.00  0.00     0.044 C 
ENDROOT
BRANCH   3   8
HETATM    8  S   UNK     0      -4.647  -0.295  20.925  0.00  0.00     0.253 S 
HETATM    9  O   UNK     0      -5.267   1.113  20.863  0.00  0.00    -0.201 OA
HETATM   10  O   UNK     0      -4.168   0.799  21.895  0.00  0.00    -0.201 OA
BRANCH   8  11
HETATM   11  N   UNK     0      -5.567  -0.758  19.755  0.00  0.00    -0.324 N 
HETATM   12  HN2 UNK     0      -6.438  -0.257  19.579  1.00  0.00     0.169 HD
HETATM   13  HN1 UNK     0      -5.289  -1.553  19.180  1.00  0.00     0.169 HD
ENDBRANCH   8  11
ENDBRANCH   3   8
BRANCH   5  14
HETATM   14  N   UNK     0      -3.415  -3.781  24.771  0.00  0.00    -0.199 N 
HETATM   15  HN  UNK     0      -3.631  -3.255  25.619  1.00  0.00     0.183 HD
BRANCH  14  16
HETATM   16  C   UNK     0      -3.465  -5.320  24.787  0.00  0.00     0.679 A 
HETATM   17  N   UNK     0      -4.752  -6.045  25.222  0.00  0.00    -0.226 N 
HETATM   18  C   UNK     0      -4.802  -7.583  25.238  0.00  0.00     0.145 A 
HETATM   19  HN  UNK     0      -5.572  -5.505  25.500  1.00  0.00     0.177 HD
HETATM   20  C   UNK     0      -3.565  -8.398  24.818  0.00  0.00     0.097 A 
HETATM   21  C   UNK     0      -2.277  -7.674  24.382  0.00  0.00     0.100 A 
HETATM   22  N   UNK     0      -2.228  -6.134  24.367  0.00  0.00    -0.180 N 
HETATM   23  HN  UNK     0      -1.375  -5.654  24.079  1.00  0.00     0.185 HD
BRANCH  21  24
HETATM   24  N   UNK     0      -1.036  -8.491  23.961  0.00  0.00    -0.347 N 
HETATM   25  C   UNK     0      -0.324  -9.389  24.985  0.00  0.00     0.157 C 
BRANCH  24  26
HETATM   26  C   UNK     0      -0.519  -8.407  22.533  0.00  0.00    -0.004 A 
HETATM   27  C   UNK     0      -1.099  -7.349  21.559  0.00  0.00     0.057 A 
HETATM   28  C   UNK     0      -0.576  -7.264  20.113  0.00  0.00     0.048 A 
HETATM   29  C   UNK     0       0.524  -8.229  19.634  0.00  0.00    -0.010 A 
HETATM   30  C   UNK     0       1.105  -9.288  20.609  0.00  0.00     0.039 A 
HETATM   31  C   UNK     0       1.243  -8.390  18.268  0.00  0.00     0.032 A 
HETATM   32  C   UNK     0       0.581  -9.373  22.055  0.00  0.00     0.111 A 
HETATM   33  N   UNK     0       2.183 -10.103  19.845  0.00  0.00    -0.302 N 
HETATM   34  N   UNK     0       2.268  -9.547  18.400  0.00  0.00    -0.300 N 
HETATM   35  HN  UNK     0       2.738 -10.869  20.227  1.00  0.00     0.186 HD
HETATM   36  C   UNK     0       3.203 -10.054  17.292  0.00  0.00     0.177 C 
HETATM   37  C   UNK     0       0.988  -7.559  17.023  0.00  0.00     0.070 C 
ENDBRANCH  24  26
ENDBRANCH  21  24
ENDBRANCH  14  16
ENDBRANCH   5  14
TORSDOF 6
ENDMDL
MODEL 5
REMARK VINA RESULT:      -8.3      2.089      2.461
REMARK  6 active torsions:
REMARK  status: ('A' for Active; 'I' for Inactive)
REMARK    1  A    between atoms: C_3  and  S_21 
REMARK    2  A    between atoms: C_5  and  N_10 
REMARK    3  A    between atoms: C_9  and  N_10 
REMARK    4  A    between atoms: C_14  and  N_17 
REMARK    5  A    between atoms: N_17  and  C_18 
REMARK    6  A    between atoms: S_21  and  N_33 
ROOT
HETATM    1  C   UNK     0      -1.700  -2.679  21.333  0.00  0.00     0.040 A 
HETATM    2  C   UNK     0      -2.476  -1.439  20.850  0.00  0.00    -0.064 A 
HETATM    3  C   UNK     0      -3.688  -0.929  21.650  0.00  0.00     0.064 A 
HETATM    4  C   UNK     0      -4.126  -1.659  22.934  0.00  0.00     0.105 A 
HETATM    5  C   UNK     0      -3.350  -2.898  23.417  0.00  0.00     0.009 A 
HETATM    6  C   UNK     0      -2.138  -3.408  22.617  0.00  0.00     0.057 A 
HETATM    7  C   UNK     0      -2.039  -0.711  19.566  0.00  0.00     0.044 C 
ENDROOT
BRANCH   3   8
HETATM    8  S   UNK     0      -4.464   0.311  21.167  0.00  0.00     0.253 S 
HETATM    9  O   UNK     0      -5.625   0.933  20.370  0.00  0.00    -0.201 OA
HETATM   10  O   UNK     0      -5.448  -0.596  20.406  0.00  0.00    -0.201 OA
BRANCH   8  11
HETATM   11  N   UNK     0      -3.987   1.731  21.593  0.00  0.00    -0.324 N 
HETATM   12  HN2 UNK     0      -3.119   2.102  21.206  1.00  0.00     0.169 HD
HETATM   13  HN1 UNK     0      -4.547   2.274  22.250  1.00  0.00     0.169 HD
ENDBRANCH   8  11
ENDBRANCH   3   8
BRANCH   5  14
HETATM   14  N   UNK     0      -3.788  -3.627  24.702  0.00  0.00    -0.199 N 
HETATM   15  HN  UNK     0      -4.053  -3.091  25.528  1.00  0.00     0.183 HD
BRANCH  14  16
HETATM   16  C   UNK     0      -3.825  -5.167  24.738  0.00  0.00     0.679 A 
HETATM   17  N   UNK     0      -5.174  -5.902  24.832  0.00  0.00    -0.226 N 
HETATM   18  C   UNK     0      -5.212  -7.441  24.868  0.00  0.00     0.145 A 
HETATM   19  HN  UNK     0      -6.044  -5.371  24.869  1.00  0.00     0.177 HD
HETATM   20  C   UNK     0      -3.899  -8.245  24.812  0.00  0.00     0.097 A 
HETATM   21  C   UNK     0      -2.549  -7.509  24.719  0.00  0.00     0.100 A 
HETATM   22  N   UNK     0      -2.512  -5.970  24.682  0.00  0.00    -0.180 N 
HETATM   23  HN  UNK     0      -1.618  -5.483  24.621  1.00  0.00     0.185 HD
BRANCH  21  24
HETATM   24  N   UNK     0      -1.233  -8.316  24.663  0.00  0.00    -0.347 N 
HETATM   25  C   UNK     0      -0.585  -8.820  25.962  0.00  0.00     0.157 C 
BRANCH  24  26
HETATM   26  C   UNK     0      -0.579  -8.610  23.322  0.00  0.00    -0.004 A 
HETATM   27  C   UNK     0       0.480  -9.738  23.206  0.00  0.00     0.057 A 
HETATM   28  C   UNK     0       1.142 -10.036  21.848  0.00  0.00     0.048 A 
HETATM   29  C   UNK     0       0.753  -9.214  20.604  0.00  0.00    -0.010 A 
HETATM   30  C   UNK     0      -0.306  -8.086  20.720  0.00  0.00     0.039 A 
HETATM   31  C   UNK     0       1.232  -9.273  19.129  0.00  0.00     0.032 A 
HETATM   32  C   UNK     0      -0.968  -7.788  22.078  0.00  0.00     0.111 A 
HETATM   33  N   UNK     0      -0.482  -7.448  19.317  0.00  0.00    -0.302 N 
HETATM   34  N   UNK     0       0.468  -8.181  18.334  0.00  0.00    -0.300 N 
HETATM   35  HN  UNK     0      -1.112  -6.680  19.081  1.00  0.00     0.186 HD
HETATM   36  C   UNK     0       0.626  -7.880  16.837  0.00  0.00     0.177 C 
HETATM   37  C   UNK     0       2.266 -10.231  18.564  0.00  0.00     0.070 C 
ENDBRANCH  24  26
ENDBRANCH  21  24
ENDBRANCH  14  16
ENDBRANCH   5  14
TORSDOF 6
ENDMDL
MODEL 6
REMARK VINA RESULT:      -8.2      1.581      2.083
REMARK  6 active torsions:
REMARK  status: ('A' for Active; 'I' for Inactive)
REMARK    1  A    between atoms: C_3  and  S_21 
REMARK    2  A    between atoms: C_5  and  N_10 
REMARK    3  A    between atoms: C_9  and  N_10 
REMARK    4  A    between atoms: C_14  and  N_17 
REMARK    5  A    between atoms: N_17  and  C_18 
REMARK    6  A    between atoms: S_21  and  N_33 
ROOT
HETATM    1  C   UNK     0      -1.059  -2.839  21.536  0.00  0.00     0.040 A 
HETATM    2  C   UNK     0      -0.725  -1.359  21.799  0.00  0.00    -0.064 A 
HETATM    3  C   UNK     0      -1.277  -0.656  23.053  0.00  0.00     0.064 A 
HETATM    4  C   UNK     0      -2.162  -1.434  24.045  0.00  0.00     0.105 A 
HETATM    5  C   UNK     0      -2.495  -2.914  23.783  0.00  0.00     0.009 A 
HETATM    6  C   UNK     0      -1.943  -3.616  22.528  0.00  0.00     0.057 A 
HETATM    7  C   UNK     0       0.159  -0.581  20.807  0.00  0.00     0.044 C 
ENDROOT
BRANCH   3   8
HETATM    8  S   UNK     0      -0.944   0.825  23.316  0.00  0.00     0.253 S 
HETATM    9  O   UNK     0      -0.137   1.900  24.067  0.00  0.00    -0.201 OA
HETATM   10  O   UNK     0       0.098   0.408  24.369  0.00  0.00    -0.201 OA
BRANCH   8  11
HETATM   11  N   UNK     0      -1.693   1.935  22.520  0.00  0.00    -0.324 N 
HETATM   12  HN2 UNK     0      -2.449   2.448  22.974  1.00  0.00     0.169 HD
HETATM   13  HN1 UNK     0      -1.421   2.137  21.559  1.00  0.00     0.169 HD
ENDBRANCH   8  11
ENDBRANCH   3   8
BRANCH   5  14
HETATM   14  N   UNK     0      -3.379  -3.692  24.775  0.00  0.00    -0.199 N 
HETATM   15  HN  UNK     0      -3.892  -3.192  25.501  1.00  0.00     0.183 HD
BRANCH  14  16
HETATM   16  C   UNK     0      -3.491  -5.225  24.670  0.00  0.00     0.679 A 
HETATM   17  N   UNK     0      -4.876  -5.898  24.669  0.00  0.00    -0.226 N 
HETATM   18  C   UNK     0      -4.987  -7.429  24.564  0.00  0.00     0.145 A 
HETATM   19  HN  UNK     0      -5.719  -5.329  24.737  1.00  0.00     0.177 HD
HETATM   20  C   UNK     0      -3.713  -8.289  24.460  0.00  0.00     0.097 A 
HETATM   21  C   UNK     0      -2.328  -7.616  24.461  0.00  0.00     0.100 A 
HETATM   22  N   UNK     0      -2.217  -6.083  24.566  0.00  0.00    -0.180 N 
HETATM   23  HN  UNK     0      -1.300  -5.637  24.566  1.00  0.00     0.185 HD
BRANCH  21  24
HETATM   24  N   UNK     0      -1.051  -8.478  24.356  0.00  0.00    -0.347 N 
HETATM   25  C   UNK     0      -0.438  -9.100  25.621  0.00  0.00     0.157 C 
BRANCH  24  26
HETATM   26  C   UNK     0      -0.400  -8.711  23.002  0.00  0.00    -0.004 A 
HETATM   27  C   UNK     0       0.711  -9.783  22.848  0.00  0.00     0.057 A 
HETATM   28  C   UNK     0       1.370 -10.019  21.477  0.00  0.00     0.048 A 
HETATM   29  C   UNK     0       0.927  -9.190  20.257  0.00  0.00    -0.010 A 
HETATM   30  C   UNK     0      -0.184  -8.117  20.409  0.00  0.00     0.039 A 
HETATM   31  C   UNK     0       1.390  -9.194  18.775  0.00  0.00     0.032 A 
HETATM   32  C   UNK     0      -0.843  -7.882  21.781  0.00  0.00     0.111 A 
HETATM   33  N   UNK     0      -0.407  -7.458  19.023  0.00  0.00    -0.302 N 
HETATM   34  N   UNK     0       0.565  -8.123  18.014  0.00  0.00    -0.300 N 
HETATM   35  HN  UNK     0      -1.076  -6.717  18.812  1.00  0.00     0.186 HD
HETATM   36  C   UNK     0       0.689  -7.782  16.522  0.00  0.00     0.177 C 
HETATM   37  C   UNK     0       2.461 -10.088  18.178  0.00  0.00     0.070 C 
ENDBRANCH  24  26
ENDBRANCH  21  24
ENDBRANCH  14  16
ENDBRANCH   5  14
TORSDOF 6
ENDMDL
MODEL 7
REMARK VINA RESULT:      -8.2      4.759      9.130
REMARK  6 active torsions:
REMARK  status: ('A' for Active; 'I' for Inactive)
REMARK    1  A    between atoms: C_3  and  S_21 
REMARK    2  A    between atoms: C_5  and  N_10 
REMARK    3  A    between atoms: C_9  and  N_10 
REMARK    4  A    between atoms: C_14  and  N_17 
REMARK    5  A    between atoms: N_17  and  C_18 
REMARK    6  A    between atoms: S_21  and  N_33 
ROOT
HETATM    1  C   UNK     0      -0.225  -8.411  12.476  0.00  0.00     0.040 A 
HETATM    2  C   UNK     0       0.791  -7.549  11.702  0.00  0.00    -0.064 A 
HETATM    3  C   UNK     0       1.611  -6.475  12.442  0.00  0.00     0.064 A 
HETATM    4  C   UNK     0       1.415  -6.264  13.955  0.00  0.00     0.105 A 
HETATM    5  C   UNK     0       0.400  -7.125  14.728  0.00  0.00     0.009 A 
HETATM    6  C   UNK     0      -0.420  -8.199  13.988  0.00  0.00     0.057 A 
HETATM    7  C   UNK     0       0.986  -7.761  10.190  0.00  0.00     0.044 C 
ENDROOT
BRANCH   3   8
HETATM    8  S   UNK     0       2.626  -5.613  11.669  0.00  0.00     0.253 S 
HETATM    9  O   UNK     0       3.736  -4.546  11.655  0.00  0.00    -0.201 OA
HETATM   10  O   UNK     0       3.089  -4.969  12.987  0.00  0.00    -0.201 OA
BRANCH   8  11
HETATM   11  N   UNK     0       2.729  -5.748  10.120  0.00  0.00    -0.324 N 
HETATM   12  HN2 UNK     0       2.270  -5.054   9.529  1.00  0.00     0.169 HD
HETATM   13  HN1 UNK     0       3.251  -6.524   9.715  1.00  0.00     0.169 HD
ENDBRANCH   8  11
ENDBRANCH   3   8
BRANCH   5  14
HETATM   14  N   UNK     0       0.204  -6.914  16.241  0.00  0.00    -0.199 N 
HETATM   15  HN  UNK     0      -0.381  -6.149  16.577  1.00  0.00     0.183 HD
BRANCH  14  16
HETATM   16  C   UNK     0       0.891  -7.857  17.246  0.00  0.00     0.679 A 
HETATM   17  N   UNK     0       2.037  -8.774  16.781  0.00  0.00    -0.226 N 
HETATM   18  C   UNK     0       2.724  -9.717  17.785  0.00  0.00     0.145 A 
HETATM   19  HN  UNK     0       2.342  -8.757  15.808  1.00  0.00     0.177 HD
HETATM   20  C   UNK     0       2.264  -9.744  19.255  0.00  0.00     0.097 A 
HETATM   21  C   UNK     0       1.117  -8.827  19.720  0.00  0.00     0.100 A 
HETATM   22  N   UNK     0       0.431  -7.884  18.715  0.00  0.00    -0.180 N 
HETATM   23  HN  UNK     0      -0.329  -7.277  19.022  1.00  0.00     0.185 HD
BRANCH  21  24
HETATM   24  N   UNK     0       0.656  -8.854  21.194  0.00  0.00    -0.347 N 
HETATM   25  C   UNK     0       0.797 -10.143  22.019  0.00  0.00     0.157 C 
BRANCH  24  26
HETATM   26  C   UNK     0       0.063  -7.605  21.828  0.00  0.00    -0.004 A 
HETATM   27  C   UNK     0       0.693  -6.217  21.542  0.00  0.00     0.057 A 
HETATM   28  C   UNK     0       0.092  -4.952  22.184  0.00  0.00     0.048 A 
HETATM   29  C   UNK     0      -1.133  -5.066  23.110  0.00  0.00    -0.010 A 
HETATM   30  C   UNK     0      -1.763  -6.456  23.396  0.00  0.00     0.039 A 
HETATM   31  C   UNK     0      -1.949  -4.001  23.889  0.00  0.00     0.032 A 
HETATM   32  C   UNK     0      -1.162  -7.720  22.754  0.00  0.00     0.111 A 
HETATM   33  N   UNK     0      -2.968  -6.248  24.352  0.00  0.00    -0.302 N 
HETATM   34  N   UNK     0      -3.082  -4.732  24.656  0.00  0.00    -0.300 N 
HETATM   35  HN  UNK     0      -3.578  -6.981  24.716  1.00  0.00     0.186 HD
HETATM   36  C   UNK     0      -4.134  -4.069  25.559  0.00  0.00     0.177 C 
HETATM   37  C   UNK     0      -1.684  -2.506  23.899  0.00  0.00     0.070 C 
ENDBRANCH  24  26
ENDBRANCH  21  24
ENDBRANCH  14  16
ENDBRANCH   5  14
TORSDOF 6
ENDMDL
MODEL 8
REMARK VINA RESULT:      -7.9      3.949      9.252
REMARK  6 active torsions:
REMARK  status: ('A' for Active; 'I' for Inactive)
REMARK    1  A    between atoms: C_3  and  S_21 
REMARK    2  A    between atoms: C_5  and  N_10 
REMARK    3  A    between atoms: C_9  and  N_10 
REMARK    4  A    between atoms: C_14  and  N_17 
REMARK    5  A    between atoms: N_17  and  C_18 
REMARK    6  A    between atoms: S_21  and  N_33 
ROOT
HETATM    1  C   UNK     0       2.283  -9.925  19.300  0.00  0.00     0.040 A 
HETATM    2  C   UNK     0       2.227  -9.262  17.911  0.00  0.00    -0.064 A 
HETATM    3  C   UNK     0       1.115  -8.248  17.586  0.00  0.00     0.064 A 
HETATM    4  C   UNK     0       0.059  -7.895  18.651  0.00  0.00     0.105 A 
HETATM    5  C   UNK     0       0.116  -8.557  20.040  0.00  0.00     0.009 A 
HETATM    6  C   UNK     0       1.228  -9.572  20.364  0.00  0.00     0.057 A 
HETATM    7  C   UNK     0       3.282  -9.615  16.847  0.00  0.00     0.044 C 
ENDROOT
BRANCH   3   8
HETATM    8  S   UNK     0       1.059  -7.585  16.197  0.00  0.00     0.253 S 
HETATM    9  O   UNK     0       1.465  -6.448  15.242  0.00  0.00    -0.201 OA
HETATM   10  O   UNK     0       1.973  -6.452  16.695  0.00  0.00    -0.201 OA
BRANCH   8  11
HETATM   11  N   UNK     0       0.226  -8.250  15.060  0.00  0.00    -0.324 N 
HETATM   12  HN2 UNK     0       0.015  -7.713  14.219  1.00  0.00     0.169 HD
HETATM   13  HN1 UNK     0      -0.097  -9.211  15.168  1.00  0.00     0.169 HD
ENDBRANCH   8  11
ENDBRANCH   3   8
BRANCH   5  14
HETATM   14  N   UNK     0      -0.939  -8.205  21.104  0.00  0.00    -0.199 N 
HETATM   15  HN  UNK     0      -1.748  -8.811  21.242  1.00  0.00     0.183 HD
BRANCH  14  16
HETATM   16  C   UNK     0      -0.775  -6.936  21.962  0.00  0.00     0.679 A 
HETATM   17  N   UNK     0      -0.106  -7.024  23.346  0.00  0.00    -0.226 N 
HETATM   18  C   UNK     0       0.059  -5.756  24.204  0.00  0.00     0.145 A 
HETATM   19  HN  UNK     0       0.228  -7.922  23.695  1.00  0.00     0.177 HD
HETATM   20  C   UNK     0      -0.445  -4.399  23.677  0.00  0.00     0.097 A 
HETATM   21  C   UNK     0      -1.114  -4.311  22.293  0.00  0.00     0.100 A 
HETATM   22  N   UNK     0      -1.279  -5.580  21.435  0.00  0.00    -0.180 N 
HETATM   23  HN  UNK     0      -1.722  -5.522  20.518  1.00  0.00     0.185 HD
BRANCH  21  24
HETATM   24  N   UNK     0      -1.620  -2.951  21.765  0.00  0.00    -0.347 N 
HETATM   25  C   UNK     0      -2.624  -2.902  20.602  0.00  0.00     0.157 C 
BRANCH  24  26
HETATM   26  C   UNK     0      -1.124  -1.659  22.396  0.00  0.00    -0.004 A 
HETATM   27  C   UNK     0      -0.161  -0.731  21.610  0.00  0.00     0.057 A 
HETATM   28  C   UNK     0       0.341   0.578  22.249  0.00  0.00     0.048 A 
HETATM   29  C   UNK     0      -0.112   0.965  23.669  0.00  0.00    -0.010 A 
HETATM   30  C   UNK     0      -1.075   0.036  24.456  0.00  0.00     0.039 A 
HETATM   31  C   UNK     0       0.213   2.189  24.565  0.00  0.00     0.032 A 
HETATM   32  C   UNK     0      -1.577  -1.272  23.816  0.00  0.00     0.111 A 
HETATM   33  N   UNK     0      -1.345   0.687  25.838  0.00  0.00    -0.302 N 
HETATM   34  N   UNK     0      -0.550   2.017  25.905  0.00  0.00    -0.300 N 
HETATM   35  HN  UNK     0      -1.942   0.307  26.574  1.00  0.00     0.186 HD
HETATM   36  C   UNK     0      -0.522   2.993  27.091  0.00  0.00     0.177 C 
HETATM   37  C   UNK     0       1.117   3.351  24.195  0.00  0.00     0.070 C 
ENDBRANCH  24  26
ENDBRANCH  21  24
ENDBRANCH  14  16
ENDBRANCH   5  14
TORSDOF 6
ENDMDL
MODEL 9
REMARK VINA RESULT:      -7.7      4.430      6.297
REMARK  6 active torsions:
REMARK  status: ('A' for Active; 'I' for Inactive)
REMARK    1  A    between atoms: C_3  and  S_21 
REMARK    2  A    between atoms: C_5  and  N_10 
REMARK    3  A    between atoms: C_9  and  N_10 
REMARK    4  A    between atoms: C_14  and  N_17 
REMARK    5  A    between atoms: N_17  and  C_18 
REMARK    6  A    between atoms: S_21  and  N_33 
ROOT
HETATM    1  C   UNK     0      -5.635   2.931  22.407  0.00  0.00     0.040 A 
HETATM    2  C   UNK     0      -7.092   2.695  22.850  0.00  0.00    -0.064 A 
HETATM    3  C   UNK     0      -7.828   1.412  22.423  0.00  0.00     0.064 A 
HETATM    4  C   UNK     0      -7.108   0.364  21.553  0.00  0.00     0.105 A 
HETATM    5  C   UNK     0      -5.653   0.600  21.111  0.00  0.00     0.009 A 
HETATM    6  C   UNK     0      -4.916   1.883  21.538  0.00  0.00     0.057 A 
HETATM    7  C   UNK     0      -7.811   3.743  23.719  0.00  0.00     0.044 C 
ENDROOT
BRANCH   3   8
HETATM    8  S   UNK     0      -9.285   1.176  22.865  0.00  0.00     0.253 S 
HETATM    9  O   UNK     0     -10.298   0.601  23.871  0.00  0.00    -0.201 OA
HETATM   10  O   UNK     0      -8.788   0.431  24.117  0.00  0.00    -0.201 OA
BRANCH   8  11
HETATM   11  N   UNK     0     -10.453   1.715  21.987  0.00  0.00    -0.324 N 
HETATM   12  HN2 UNK     0     -11.410   1.434  22.204  1.00  0.00     0.169 HD
HETATM   13  HN1 UNK     0     -10.251   2.340  21.207  1.00  0.00     0.169 HD
ENDBRANCH   8  11
ENDBRANCH   3   8
BRANCH   5  14
HETATM   14  N   UNK     0      -4.933  -0.448  20.241  0.00  0.00    -0.199 N 
HETATM   15  HN  UNK     0      -5.385  -0.812  19.402  1.00  0.00     0.183 HD
BRANCH  14  16
HETATM   16  C   UNK     0      -3.531  -0.947  20.638  0.00  0.00     0.679 A 
HETATM   17  N   UNK     0      -2.305  -0.548  19.796  0.00  0.00    -0.226 N 
HETATM   18  C   UNK     0      -0.903  -1.047  20.193  0.00  0.00     0.145 A 
HETATM   19  HN  UNK     0      -2.421   0.046  18.976  1.00  0.00     0.177 HD
HETATM   20  C   UNK     0      -0.728  -1.945  21.432  0.00  0.00     0.097 A 
HETATM   21  C   UNK     0      -1.954  -2.343  22.274  0.00  0.00     0.100 A 
HETATM   22  N   UNK     0      -3.356  -1.844  21.877  0.00  0.00    -0.180 N 
HETATM   23  HN  UNK     0      -4.168  -2.108  22.434  1.00  0.00     0.185 HD
BRANCH  21  24
HETATM   24  N   UNK     0      -1.777  -3.244  23.517  0.00  0.00    -0.347 N 
HETATM   25  C   UNK     0      -2.081  -2.688  24.917  0.00  0.00     0.157 C 
BRANCH  24  26
HETATM   26  C   UNK     0      -1.303  -4.680  23.354  0.00  0.00    -0.004 A 
HETATM   27  C   UNK     0      -1.290  -5.636  24.575  0.00  0.00     0.057 A 
HETATM   28  C   UNK     0      -0.809  -7.089  24.410  0.00  0.00     0.048 A 
HETATM   29  C   UNK     0      -0.342  -7.595  23.032  0.00  0.00    -0.010 A 
HETATM   30  C   UNK     0      -0.355  -6.638  21.810  0.00  0.00     0.039 A 
HETATM   31  C   UNK     0       0.186  -8.974  22.556  0.00  0.00     0.032 A 
HETATM   32  C   UNK     0      -0.836  -5.185  21.976  0.00  0.00     0.111 A 
HETATM   33  N   UNK     0       0.165  -7.427  20.579  0.00  0.00    -0.302 N 
HETATM   34  N   UNK     0       0.499  -8.869  21.040  0.00  0.00    -0.300 N 
HETATM   35  HN  UNK     0       0.268  -7.060  19.632  1.00  0.00     0.186 HD
HETATM   36  C   UNK     0       1.044  -9.997  20.152  0.00  0.00     0.177 C 
HETATM   37  C   UNK     0       0.365 -10.208  23.422  0.00  0.00     0.070 C 
ENDBRANCH  24  26
ENDBRANCH  21  24
ENDBRANCH  14  16
ENDBRANCH   5  14
TORSDOF 6
ENDMDL
MODEL 10
REMARK VINA RESULT:      -7.6      1.788      2.428
REMARK  6 active torsions:
REMARK  status: ('A' for Active; 'I' for Inactive)
REMARK    1  A    between atoms: C_3  and  S_21 
REMARK    2  A    between atoms: C_5  and  N_10 
REMARK    3  A    between atoms: C_9  and  N_10 
REMARK    4  A    between atoms: C_14  and  N_17 
REMARK    5  A    between atoms: N_17  and  C_18 
REMARK    6  A    between atoms: S_21  and  N_33 
ROOT
HETATM    1  C   UNK     0      -4.642  -1.208  22.435  0.00  0.00     0.040 A 
HETATM    2  C   UNK     0      -3.304  -0.713  21.855  0.00  0.00    -0.064 A 
HETATM    3  C   UNK     0      -1.975  -1.241  22.426  0.00  0.00     0.064 A 
HETATM    4  C   UNK     0      -1.984  -2.264  23.578  0.00  0.00     0.105 A 
HETATM    5  C   UNK     0      -3.321  -2.758  24.157  0.00  0.00     0.009 A 
HETATM    6  C   UNK     0      -4.651  -2.230  23.586  0.00  0.00     0.057 A 
HETATM    7  C   UNK     0      -3.295   0.310  20.704  0.00  0.00     0.044 C 
ENDROOT
BRANCH   3   8
HETATM    8  S   UNK     0      -0.636  -0.746  21.846  0.00  0.00     0.253 S 
HETATM    9  O   UNK     0       0.500  -0.871  20.815  0.00  0.00    -0.201 OA
HETATM   10  O   UNK     0      -0.681  -1.858  20.783  0.00  0.00    -0.201 OA
BRANCH   8  11
HETATM   11  N   UNK     0       0.075   0.482  22.489  0.00  0.00    -0.324 N 
HETATM   12  HN2 UNK     0       0.964   0.801  22.104  1.00  0.00     0.169 HD
HETATM   13  HN1 UNK     0      -0.354   0.952  23.286  1.00  0.00     0.169 HD
ENDBRANCH   8  11
ENDBRANCH   3   8
BRANCH   5  14
HETATM   14  N   UNK     0      -3.331  -3.781  25.309  0.00  0.00    -0.199 N 
HETATM   15  HN  UNK     0      -4.129  -3.830  25.941  1.00  0.00     0.183 HD
BRANCH  14  16
HETATM   16  C   UNK     0      -2.134  -4.730  25.505  0.00  0.00     0.679 A 
HETATM   17  N   UNK     0      -0.915  -4.272  26.328  0.00  0.00    -0.226 N 
HETATM   18  C   UNK     0       0.281  -5.220  26.525  0.00  0.00     0.145 A 
HETATM   19  HN  UNK     0      -0.901  -3.341  26.743  1.00  0.00     0.177 HD
HETATM   20  C   UNK     0       0.260  -6.628  25.899  0.00  0.00     0.097 A 
HETATM   21  C   UNK     0      -0.959  -7.085  25.076  0.00  0.00     0.100 A 
HETATM   22  N   UNK     0      -2.156  -6.136  24.880  0.00  0.00    -0.180 N 
HETATM   23  HN  UNK     0      -2.963  -6.440  24.335  1.00  0.00     0.185 HD
BRANCH  21  24
HETATM   24  N   UNK     0      -0.980  -8.497  24.449  0.00  0.00    -0.347 N 
HETATM   25  C   UNK     0      -1.626  -9.666  25.209  0.00  0.00     0.157 C 
BRANCH  24  26
HETATM   26  C   UNK     0      -0.362  -8.729  23.078  0.00  0.00    -0.004 A 
HETATM   27  C   UNK     0       0.740  -9.805  22.896  0.00  0.00     0.057 A 
HETATM   28  C   UNK     0       1.366 -10.039  21.509  0.00  0.00     0.048 A 
HETATM   29  C   UNK     0       0.897  -9.205  20.302  0.00  0.00    -0.010 A 
HETATM   30  C   UNK     0      -0.206  -8.129  20.483  0.00  0.00     0.039 A 
HETATM   31  C   UNK     0       1.325  -9.206  18.810  0.00  0.00     0.032 A 
HETATM   32  C   UNK     0      -0.831  -7.895  21.871  0.00  0.00     0.111 A 
HETATM   33  N   UNK     0      -0.459  -7.465  19.104  0.00  0.00    -0.302 N 
HETATM   34  N   UNK     0       0.486  -8.131  18.071  0.00  0.00    -0.300 N 
HETATM   35  HN  UNK     0      -1.130  -6.721  18.911  1.00  0.00     0.186 HD
HETATM   36  C   UNK     0       0.577  -7.786  16.577  0.00  0.00     0.177 C 
HETATM   37  C   UNK     0       2.379 -10.103  18.185  0.00  0.00     0.070 C 
ENDBRANCH  24  26
ENDBRANCH  21  24
ENDBRANCH  14  16
ENDBRANCH   5  14
TORSDOF 6
ENDMDL
MODEL 11
REMARK VINA RESULT:      -7.3      4.575      7.951
REMARK  6 active torsions:
REMARK  status: ('A' for Active; 'I' for Inactive)
REMARK    1  A    between atoms: C_3  and  S_21 
REMARK    2  A    between atoms: C_5  and  N_10 
REMARK    3  A    between atoms: C_9  and  N_10 
REMARK    4  A    between atoms: C_14  and  N_17 
REMARK    5  A    between atoms: N_17  and  C_18 
REMARK    6  A    between atoms: S_21  and  N_33 
ROOT
HETATM    1  C   UNK     0       2.007  -9.774  19.537  0.00  0.00     0.040 A 
HETATM    2  C   UNK     0       2.032  -9.246  18.091  0.00  0.00    -0.064 A 
HETATM    3  C   UNK     0       1.007  -8.188  17.640  0.00  0.00     0.064 A 
HETATM    4  C   UNK     0      -0.042  -7.659  18.636  0.00  0.00     0.105 A 
HETATM    5  C   UNK     0      -0.067  -8.188  20.081  0.00  0.00     0.009 A 
HETATM    6  C   UNK     0       0.957  -9.246  20.532  0.00  0.00     0.057 A 
HETATM    7  C   UNK     0       3.081  -9.774  17.096  0.00  0.00     0.044 C 
ENDROOT
BRANCH   3   8
HETATM    8  S   UNK     0       1.032  -7.659  16.194  0.00  0.00     0.253 S 
HETATM    9  O   UNK     0       1.510  -6.625  15.158  0.00  0.00    -0.201 OA
HETATM   10  O   UNK     0       1.949  -6.501  16.629  0.00  0.00    -0.201 OA
BRANCH   8  11
HETATM   11  N   UNK     0       0.239  -8.412  15.085  0.00  0.00    -0.324 N 
HETATM   12  HN2 UNK     0       0.265  -8.060  14.127  1.00  0.00     0.169 HD
HETATM   13  HN1 UNK     0      -0.297  -9.246  15.326  1.00  0.00     0.169 HD
ENDBRANCH   8  11
ENDBRANCH   3   8
BRANCH   5  14
HETATM   14  N   UNK     0      -1.117  -7.659  21.077  0.00  0.00    -0.199 N 
HETATM   15  HN  UNK     0      -2.083  -7.530  20.778  1.00  0.00     0.183 HD
BRANCH  14  16
HETATM   16  C   UNK     0      -0.707  -7.325  22.523  0.00  0.00     0.679 A 
HETATM   17  N   UNK     0      -0.501  -5.858  22.946  0.00  0.00    -0.226 N 
HETATM   18  C   UNK     0      -0.091  -5.524  24.392  0.00  0.00     0.145 A 
HETATM   19  HN  UNK     0      -0.636  -5.108  22.268  1.00  0.00     0.177 HD
HETATM   20  C   UNK     0       0.113  -6.656  25.416  0.00  0.00     0.097 A 
HETATM   21  C   UNK     0      -0.093  -8.122  24.993  0.00  0.00     0.100 A 
HETATM   22  N   UNK     0      -0.503  -8.457  23.547  0.00  0.00    -0.180 N 
HETATM   23  HN  UNK     0      -0.639  -9.428  23.267  1.00  0.00     0.185 HD
BRANCH  21  24
HETATM   24  N   UNK     0       0.112  -9.258  26.020  0.00  0.00    -0.347 N 
HETATM   25  C   UNK     0       1.278  -9.189  27.019  0.00  0.00     0.157 C 
BRANCH  24  26
HETATM   26  C   UNK     0      -0.841 -10.443  26.043  0.00  0.00    -0.004 A 
HETATM   27  C   UNK     0      -2.365 -10.211  26.210  0.00  0.00     0.057 A 
HETATM   28  C   UNK     0      -3.330 -11.411  26.233  0.00  0.00     0.048 A 
HETATM   29  C   UNK     0      -2.780 -12.843  26.090  0.00  0.00    -0.010 A 
HETATM   30  C   UNK     0      -1.255 -13.076  25.923  0.00  0.00     0.039 A 
HETATM   31  C   UNK     0      -3.481 -14.227  26.076  0.00  0.00     0.032 A 
HETATM   32  C   UNK     0      -0.292 -11.875  25.900  0.00  0.00     0.111 A 
HETATM   33  N   UNK     0      -1.014 -14.604  25.805  0.00  0.00    -0.302 N 
HETATM   34  N   UNK     0      -2.389 -15.315  25.899  0.00  0.00    -0.300 N 
HETATM   35  HN  UNK     0      -0.110 -15.061  25.686  1.00  0.00     0.186 HD
HETATM   36  C   UNK     0      -2.629 -16.831  25.830  0.00  0.00     0.177 C 
HETATM   37  C   UNK     0      -4.973 -14.473  26.210  0.00  0.00     0.070 C 
ENDBRANCH  24  26
ENDBRANCH  21  24
ENDBRANCH  14  16
ENDBRANCH   5  14
TORSDOF 6
ENDMDL
MODEL 12
REMARK VINA RESULT:      -7.2      7.393     10.794
REMARK  6 active torsions:
REMARK  status: ('A' for Active; 'I' for Inactive)
REMARK    1  A    between atoms: C_3  and  S_21 
REMARK    2  A    between atoms: C_5  and  N_10 
REMARK    3  A    between atoms: C_9  and  N_10 
REMARK    4  A    between atoms: C_14  and  N_17 
REMARK    5  A    between atoms: N_17  and  C_18 
REMARK    6  A    between atoms: S_21  and  N_33 
ROOT
HETATM    1  C   UNK     0       1.601 -14.957  26.540  0.00  0.00     0.040 A 
HETATM    2  C   UNK     0       1.752 -16.396  26.012  0.00  0.00    -0.064 A 
HETATM    3  C   UNK     0       0.587 -17.068  25.263  0.00  0.00     0.064 A 
HETATM    4  C   UNK     0      -0.730 -16.300  25.041  0.00  0.00     0.105 A 
HETATM    5  C   UNK     0      -0.881 -14.862  25.569  0.00  0.00     0.009 A 
HETATM    6  C   UNK     0       0.285 -14.190  26.319  0.00  0.00     0.057 A 
HETATM    7  C   UNK     0       3.069 -17.163  26.234  0.00  0.00     0.044 C 
ENDROOT
BRANCH   3   8
HETATM    8  S   UNK     0       0.738 -18.506  24.734  0.00  0.00     0.253 S 
HETATM    9  O   UNK     0       1.021 -19.482  23.577  0.00  0.00    -0.201 OA
HETATM   10  O   UNK     0       1.043 -17.962  23.327  0.00  0.00    -0.201 OA
BRANCH   8  11
HETATM   11  N   UNK     0       0.546 -19.708  25.707  0.00  0.00    -0.324 N 
HETATM   12  HN2 UNK     0       1.132 -20.536  25.598  1.00  0.00     0.169 HD
HETATM   13  HN1 UNK     0      -0.160 -19.655  26.441  1.00  0.00     0.169 HD
ENDBRANCH   8  11
ENDBRANCH   3   8
BRANCH   5  14
HETATM   14  N   UNK     0      -2.198 -14.094  25.347  0.00  0.00    -0.199 N 
HETATM   15  HN  UNK     0      -2.999 -14.567  24.929  1.00  0.00     0.183 HD
BRANCH  14  16
HETATM   16  C   UNK     0      -2.305 -12.613  25.757  0.00  0.00     0.679 A 
HETATM   17  N   UNK     0      -3.439 -12.153  26.691  0.00  0.00    -0.226 N 
HETATM   18  C   UNK     0      -3.546 -10.673  27.100  0.00  0.00     0.145 A 
HETATM   19  HN  UNK     0      -4.120 -12.828  27.038  1.00  0.00     0.177 HD
HETATM   20  C   UNK     0      -2.519  -9.652  26.576  0.00  0.00     0.097 A 
HETATM   21  C   UNK     0      -1.384 -10.113  25.642  0.00  0.00     0.100 A 
HETATM   22  N   UNK     0      -1.277 -11.594  25.232  0.00  0.00    -0.180 N 
HETATM   23  HN  UNK     0      -0.526 -11.899  24.614  1.00  0.00     0.185 HD
BRANCH  21  24
HETATM   24  N   UNK     0      -0.353  -9.089  25.116  0.00  0.00    -0.347 N 
HETATM   25  C   UNK     0       0.484  -8.264  26.106  0.00  0.00     0.157 C 
BRANCH  24  26
HETATM   26  C   UNK     0      -0.168  -8.899  23.618  0.00  0.00    -0.004 A 
HETATM   27  C   UNK     0      -1.013  -7.842  22.860  0.00  0.00     0.057 A 
HETATM   28  C   UNK     0      -0.825  -7.649  21.344  0.00  0.00     0.048 A 
HETATM   29  C   UNK     0       0.203  -8.505  20.580  0.00  0.00    -0.010 A 
HETATM   30  C   UNK     0       1.049  -9.562  21.339  0.00  0.00     0.039 A 
HETATM   31  C   UNK     0       0.615  -8.545  19.084  0.00  0.00     0.032 A 
HETATM   32  C   UNK     0       0.860  -9.755  22.855  0.00  0.00     0.111 A 
HETATM   33  N   UNK     0       1.983 -10.256  20.312  0.00  0.00    -0.302 N 
HETATM   34  N   UNK     0       1.714  -9.627  18.919  0.00  0.00    -0.300 N 
HETATM   35  HN  UNK     0       2.655 -10.995  20.516  1.00  0.00     0.186 HD
HETATM   36  C   UNK     0       2.414 -10.009  17.607  0.00  0.00     0.177 C 
HETATM   37  C   UNK     0       0.041  -7.678  17.978  0.00  0.00     0.070 C 
ENDBRANCH  24  26
ENDBRANCH  21  24
ENDBRANCH  14  16
ENDBRANCH   5  14
TORSDOF 6
ENDMDL
MODEL 13
REMARK VINA RESULT:      -7.1      4.495      7.005
REMARK  6 active torsions:
REMARK  status: ('A' for Active; 'I' for Inactive)
REMARK    1  A    between atoms: C_3  and  S_21 
REMARK    2  A    between atoms: C_5  and  N_10 
REMARK    3  A    between atoms: C_9  and  N_10 
REMARK    4  A    between atoms: C_14  and  N_17 
REMARK    5  A    between atoms: N_17  and  C_18 
REMARK    6  A    between atoms: S_21  and  N_33 
ROOT
HETATM    1  C   UNK     0      -7.307   3.547  23.017  0.00  0.00     0.040 A 
HETATM    2  C   UNK     0      -8.315   2.386  22.949  0.00  0.00    -0.064 A 
HETATM    3  C   UNK     0      -7.893   1.034  22.342  0.00  0.00     0.064 A 
HETATM    4  C   UNK     0      -6.463   0.845  21.805  0.00  0.00     0.105 A 
HETATM    5  C   UNK     0      -5.455   2.006  21.874  0.00  0.00     0.009 A 
HETATM    6  C   UNK     0      -5.877   3.358  22.480  0.00  0.00     0.057 A 
HETATM    7  C   UNK     0      -9.745   2.575  23.486  0.00  0.00     0.044 C 
ENDROOT
BRANCH   3   8
HETATM    8  S   UNK     0      -8.902  -0.128  22.274  0.00  0.00     0.253 S 
HETATM    9  O   UNK     0      -9.504  -1.412  22.874  0.00  0.00    -0.201 OA
HETATM   10  O   UNK     0      -8.355  -0.686  23.600  0.00  0.00    -0.201 OA
BRANCH   8  11
HETATM   11  N   UNK     0      -9.890  -0.220  21.073  0.00  0.00    -0.324 N 
HETATM   12  HN2 UNK     0     -10.360   0.626  20.749  1.00  0.00     0.169 HD
HETATM   13  HN1 UNK     0     -10.057  -1.121  20.625  1.00  0.00     0.169 HD
ENDBRANCH   8  11
ENDBRANCH   3   8
BRANCH   5  14
HETATM   14  N   UNK     0      -4.024   1.817  21.336  0.00  0.00    -0.199 N 
HETATM   15  HN  UNK     0      -3.818   2.005  20.355  1.00  0.00     0.183 HD
BRANCH  14  16
HETATM   16  C   UNK     0      -2.902   1.343  22.280  0.00  0.00     0.679 A 
HETATM   17  N   UNK     0      -1.644   2.209  22.477  0.00  0.00    -0.226 N 
HETATM   18  C   UNK     0      -0.524   1.737  23.420  0.00  0.00     0.145 A 
HETATM   19  HN  UNK     0      -1.554   3.096  21.982  1.00  0.00     0.177 HD
HETATM   20  C   UNK     0      -0.660   0.397  24.167  0.00  0.00     0.097 A 
HETATM   21  C   UNK     0      -1.918  -0.469  23.971  0.00  0.00     0.100 A 
HETATM   22  N   UNK     0      -3.040   0.004  23.027  0.00  0.00    -0.180 N 
HETATM   23  HN  UNK     0      -3.873  -0.570  22.897  1.00  0.00     0.185 HD
BRANCH  21  24
HETATM   24  N   UNK     0      -2.055  -1.813  24.721  0.00  0.00    -0.347 N 
HETATM   25  C   UNK     0      -2.620  -1.842  26.150  0.00  0.00     0.157 C 
BRANCH  24  26
HETATM   26  C   UNK     0      -1.631  -3.108  24.044  0.00  0.00    -0.004 A 
HETATM   27  C   UNK     0      -1.435  -3.151  22.506  0.00  0.00     0.057 A 
HETATM   28  C   UNK     0      -1.006  -4.462  21.821  0.00  0.00     0.048 A 
HETATM   29  C   UNK     0      -0.771  -5.730  22.663  0.00  0.00    -0.010 A 
HETATM   30  C   UNK     0      -0.967  -5.687  24.202  0.00  0.00     0.039 A 
HETATM   31  C   UNK     0      -0.343  -7.171  22.275  0.00  0.00     0.032 A 
HETATM   32  C   UNK     0      -1.397  -4.376  24.886  0.00  0.00     0.111 A 
HETATM   33  N   UNK     0      -0.661  -7.100  24.765  0.00  0.00    -0.302 N 
HETATM   34  N   UNK     0      -0.275  -8.016  23.574  0.00  0.00    -0.300 N 
HETATM   35  HN  UNK     0      -0.704  -7.378  25.745  1.00  0.00     0.186 HD
HETATM   36  C   UNK     0       0.107  -9.501  23.665  0.00  0.00     0.177 C 
HETATM   37  C   UNK     0      -0.044  -7.664  20.871  0.00  0.00     0.070 C 
ENDBRANCH  24  26
ENDBRANCH  21  24
ENDBRANCH  14  16
ENDBRANCH   5  14
TORSDOF 6
ENDMDL
MODEL 14
REMARK VINA RESULT:      -7.1      4.649      6.777
REMARK  6 active torsions:
REMARK  status: ('A' for Active; 'I' for Inactive)
REMARK    1  A    between atoms: C_3  and  S_21 
REMARK    2  A    between atoms: C_5  and  N_10 
REMARK    3  A    between atoms: C_9  and  N_10 
REMARK    4  A    between atoms: C_14  and  N_17 
REMARK    5  A    between atoms: N_17  and  C_18 
REMARK    6  A    between atoms: S_21  and  N_33 
ROOT
HETATM    1  C   UNK     0      -1.891  -1.115  19.673  0.00  0.00     0.040 A 
HETATM    2  C   UNK     0      -1.180  -0.859  21.015  0.00  0.00    -0.064 A 
HETATM    3  C   UNK     0      -1.992  -0.403  22.242  0.00  0.00     0.064 A 
HETATM    4  C   UNK     0      -3.515  -0.202  22.126  0.00  0.00     0.105 A 
HETATM    5  C   UNK     0      -4.225  -0.457  20.784  0.00  0.00     0.009 A 
HETATM    6  C   UNK     0      -3.413  -0.914  19.558  0.00  0.00     0.057 A 
HETATM    7  C   UNK     0       0.342  -1.061  21.130  0.00  0.00     0.044 C 
ENDROOT
BRANCH   3   8
HETATM    8  S   UNK     0      -1.281  -0.147  23.584  0.00  0.00     0.253 S 
HETATM    9  O   UNK     0      -0.779  -0.656  24.947  0.00  0.00    -0.201 OA
HETATM   10  O   UNK     0      -1.510  -1.615  23.989  0.00  0.00    -0.201 OA
BRANCH   8  11
HETATM   11  N   UNK     0      -0.722   1.272  23.901  0.00  0.00    -0.324 N 
HETATM   12  HN2 UNK     0      -0.127   1.401  24.720  1.00  0.00     0.169 HD
HETATM   13  HN1 UNK     0      -0.956   2.054  23.290  1.00  0.00     0.169 HD
ENDBRANCH   8  11
ENDBRANCH   3   8
BRANCH   5  14
HETATM   14  N   UNK     0      -5.748  -0.256  20.669  0.00  0.00    -0.199 N 
HETATM   15  HN  UNK     0      -6.134   0.273  19.887  1.00  0.00     0.183 HD
BRANCH  14  16
HETATM   16  C   UNK     0      -6.687  -0.855  21.733  0.00  0.00     0.679 A 
HETATM   17  N   UNK     0      -7.685   0.053  22.476  0.00  0.00    -0.226 N 
HETATM   18  C   UNK     0      -8.624  -0.545  23.540  0.00  0.00     0.145 A 
HETATM   19  HN  UNK     0      -7.724   1.049  22.264  1.00  0.00     0.177 HD
HETATM   20  C   UNK     0      -8.565  -2.050  23.861  0.00  0.00     0.097 A 
HETATM   21  C   UNK     0      -7.567  -2.957  23.118  0.00  0.00     0.100 A 
HETATM   22  N   UNK     0      -6.627  -2.359  22.053  0.00  0.00    -0.180 N 
HETATM   23  HN  UNK     0      -5.966  -2.960  21.561  1.00  0.00     0.185 HD
BRANCH  21  24
HETATM   24  N   UNK     0      -7.508  -4.467  23.439  0.00  0.00    -0.347 N 
HETATM   25  C   UNK     0      -8.745  -5.350  23.212  0.00  0.00     0.157 C 
BRANCH  24  26
HETATM   26  C   UNK     0      -6.225  -5.079  23.982  0.00  0.00    -0.004 A 
HETATM   27  C   UNK     0      -6.123  -6.613  24.185  0.00  0.00     0.057 A 
HETATM   28  C   UNK     0      -4.825  -7.233  24.734  0.00  0.00     0.048 A 
HETATM   29  C   UNK     0      -3.627  -6.329  25.082  0.00  0.00    -0.010 A 
HETATM   30  C   UNK     0      -3.729  -4.794  24.879  0.00  0.00     0.039 A 
HETATM   31  C   UNK     0      -2.214  -6.646  25.640  0.00  0.00     0.032 A 
HETATM   32  C   UNK     0      -5.028  -4.175  24.330  0.00  0.00     0.111 A 
HETATM   33  N   UNK     0      -2.380  -4.163  25.312  0.00  0.00    -0.302 N 
HETATM   34  N   UNK     0      -1.444  -5.307  25.783  0.00  0.00    -0.300 N 
HETATM   35  HN  UNK     0      -2.148  -3.169  25.291  1.00  0.00     0.186 HD
HETATM   36  C   UNK     0      -0.007  -5.143  26.299  0.00  0.00     0.177 C 
HETATM   37  C   UNK     0      -1.681  -8.025  25.987  0.00  0.00     0.070 C 
ENDBRANCH  24  26
ENDBRANCH  21  24
ENDBRANCH  14  16
ENDBRANCH   5  14
TORSDOF 6
ENDMDL
MODEL 15
REMARK VINA RESULT:      -7.1      5.456      9.010
REMARK  6 active torsions:
REMARK  status: ('A' for Active; 'I' for Inactive)
REMARK    1  A    between atoms: C_3  and  S_21 
REMARK    2  A    between atoms: C_5  and  N_10 
REMARK    3  A    between atoms: C_9  and  N_10 
REMARK    4  A    between atoms: C_14  and  N_17 
REMARK    5  A    between atoms: N_17  and  C_18 
REMARK    6  A    between atoms: S_21  and  N_33 
ROOT
HETATM    1  C   UNK     0      -0.228  -8.529  13.885  0.00  0.00     0.040 A 
HETATM    2  C   UNK     0       0.473  -7.878  12.677  0.00  0.00    -0.064 A 
HETATM    3  C   UNK     0       1.687  -6.957  12.896  0.00  0.00     0.064 A 
HETATM    4  C   UNK     0       2.202  -6.687  14.322  0.00  0.00     0.105 A 
HETATM    5  C   UNK     0       1.501  -7.337  15.529  0.00  0.00     0.009 A 
HETATM    6  C   UNK     0       0.286  -8.258  15.310  0.00  0.00     0.057 A 
HETATM    7  C   UNK     0      -0.042  -8.149  11.252  0.00  0.00     0.044 C 
ENDROOT
BRANCH   3   8
HETATM    8  S   UNK     0       2.388  -6.307  11.688  0.00  0.00     0.253 S 
HETATM    9  O   UNK     0       3.410  -6.378  10.539  0.00  0.00    -0.201 OA
HETATM   10  O   UNK     0       3.223  -7.583  11.480  0.00  0.00    -0.201 OA
BRANCH   8  11
HETATM   11  N   UNK     0       2.005  -4.857  11.265  0.00  0.00    -0.324 N 
HETATM   12  HN2 UNK     0       2.292  -4.074  11.853  1.00  0.00     0.169 HD
HETATM   13  HN1 UNK     0       1.474  -4.706  10.408  1.00  0.00     0.169 HD
ENDBRANCH   8  11
ENDBRANCH   3   8
BRANCH   5  14
HETATM   14  N   UNK     0       2.015  -7.067  16.956  0.00  0.00    -0.199 N 
HETATM   15  HN  UNK     0       2.671  -6.304  17.125  1.00  0.00     0.183 HD
BRANCH  14  16
HETATM   16  C   UNK     0       1.540  -7.948  18.126  0.00  0.00     0.679 A 
HETATM   17  N   UNK     0       1.736  -9.475  18.070  0.00  0.00    -0.226 N 
HETATM   18  C   UNK     0       1.261 -10.356  19.239  0.00  0.00     0.145 A 
HETATM   19  HN  UNK     0       2.181  -9.902  17.258  1.00  0.00     0.177 HD
HETATM   20  C   UNK     0       0.589  -9.711  20.466  0.00  0.00     0.097 A 
HETATM   21  C   UNK     0       0.392  -8.184  20.522  0.00  0.00     0.100 A 
HETATM   22  N   UNK     0       0.868  -7.303  19.352  0.00  0.00    -0.180 N 
HETATM   23  HN  UNK     0       0.738  -6.292  19.389  1.00  0.00     0.185 HD
BRANCH  21  24
HETATM   24  N   UNK     0      -0.282  -7.537  21.752  0.00  0.00    -0.347 N 
HETATM   25  C   UNK     0      -0.569  -6.027  21.766  0.00  0.00     0.157 C 
BRANCH  24  26
HETATM   26  C   UNK     0      -0.661  -8.395  22.950  0.00  0.00    -0.004 A 
HETATM   27  C   UNK     0      -1.977  -8.112  23.721  0.00  0.00     0.057 A 
HETATM   28  C   UNK     0      -2.361  -8.980  24.934  0.00  0.00     0.048 A 
HETATM   29  C   UNK     0      -1.439 -10.131  25.380  0.00  0.00    -0.010 A 
HETATM   30  C   UNK     0      -0.123 -10.414  24.608  0.00  0.00     0.039 A 
HETATM   31  C   UNK     0      -1.548 -11.160  26.536  0.00  0.00     0.032 A 
HETATM   32  C   UNK     0       0.261  -9.545  23.396  0.00  0.00     0.111 A 
HETATM   33  N   UNK     0       0.581 -11.618  25.287  0.00  0.00    -0.302 N 
HETATM   34  N   UNK     0      -0.299 -12.079  26.479  0.00  0.00    -0.300 N 
HETATM   35  HN  UNK     0       1.468 -12.035  25.001  1.00  0.00     0.186 HD
HETATM   36  C   UNK     0       0.010 -13.241  27.434  0.00  0.00     0.177 C 
HETATM   37  C   UNK     0      -2.678 -11.251  27.546  0.00  0.00     0.070 C 
ENDBRANCH  24  26
ENDBRANCH  21  24
ENDBRANCH  14  16
ENDBRANCH   5  14
TORSDOF 6
ENDMDL
MODEL 16
REMARK VINA RESULT:      -7.1      4.705      7.919
REMARK  6 active torsions:
REMARK  status: ('A' for Active; 'I' for Inactive)
REMARK    1  A    between atoms: C_3  and  S_21 
REMARK    2  A    between atoms: C_5  and  N_10 
REMARK    3  A    between atoms: C_9  and  N_10 
REMARK    4  A    between atoms: C_14  and  N_17 
REMARK    5  A    between atoms: N_17  and  C_18 
REMARK    6  A    between atoms: S_21  and  N_33 
ROOT
HETATM    1  C   UNK     0       1.749  -9.729  19.968  0.00  0.00     0.040 A 
HETATM    2  C   UNK     0       1.846  -9.302  18.491  0.00  0.00    -0.064 A 
HETATM    3  C   UNK     0       0.936  -8.183  17.951  0.00  0.00     0.064 A 
HETATM    4  C   UNK     0      -0.071  -7.491  18.889  0.00  0.00     0.105 A 
HETATM    5  C   UNK     0      -0.168  -7.917  20.365  0.00  0.00     0.009 A 
HETATM    6  C   UNK     0       0.742  -9.036  20.904  0.00  0.00     0.057 A 
HETATM    7  C   UNK     0       2.853  -9.994  17.554  0.00  0.00     0.044 C 
ENDROOT
BRANCH   3   8
HETATM    8  S   UNK     0       1.033  -7.757  16.475  0.00  0.00     0.253 S 
HETATM    9  O   UNK     0       1.558  -6.794  15.394  0.00  0.00    -0.201 OA
HETATM   10  O   UNK     0       1.921  -6.564  16.873  0.00  0.00    -0.201 OA
BRANCH   8  11
HETATM   11  N   UNK     0       0.300  -8.592  15.382  0.00  0.00    -0.324 N 
HETATM   12  HN2 UNK     0       0.358  -9.610  15.412  1.00  0.00     0.169 HD
HETATM   13  HN1 UNK     0      -0.227  -8.114  14.652  1.00  0.00     0.169 HD
ENDBRANCH   8  11
ENDBRANCH   3   8
BRANCH   5  14
HETATM   14  N   UNK     0      -1.175  -7.225  21.302  0.00  0.00    -0.199 N 
HETATM   15  HN  UNK     0      -1.964  -6.710  20.912  1.00  0.00     0.183 HD
BRANCH  14  16
HETATM   16  C   UNK     0      -0.991  -7.310  22.829  0.00  0.00     0.679 A 
HETATM   17  N   UNK     0      -0.122  -6.268  23.559  0.00  0.00    -0.226 N 
HETATM   18  C   UNK     0       0.062  -6.353  25.085  0.00  0.00     0.145 A 
HETATM   19  HN  UNK     0       0.330  -5.522  23.031  1.00  0.00     0.177 HD
HETATM   20  C   UNK     0      -0.622  -7.480  25.882  0.00  0.00     0.097 A 
HETATM   21  C   UNK     0      -1.490  -8.521  25.152  0.00  0.00     0.100 A 
HETATM   22  N   UNK     0      -1.674  -8.436  23.625  0.00  0.00    -0.180 N 
HETATM   23  HN  UNK     0      -2.249  -9.126  23.142  1.00  0.00     0.185 HD
BRANCH  21  24
HETATM   24  N   UNK     0      -2.175  -9.651  25.952  0.00  0.00    -0.347 N 
HETATM   25  C   UNK     0      -3.554  -9.415  26.588  0.00  0.00     0.157 C 
BRANCH  24  26
HETATM   26  C   UNK     0      -1.486 -10.998  26.109  0.00  0.00    -0.004 A 
HETATM   27  C   UNK     0      -0.163 -11.103  26.912  0.00  0.00     0.057 A 
HETATM   28  C   UNK     0       0.535 -12.467  27.071  0.00  0.00     0.048 A 
HETATM   29  C   UNK     0      -0.080 -13.726  26.432  0.00  0.00    -0.010 A 
HETATM   30  C   UNK     0      -1.403 -13.621  25.628  0.00  0.00     0.039 A 
HETATM   31  C   UNK     0       0.375 -15.210  26.414  0.00  0.00     0.032 A 
HETATM   32  C   UNK     0      -2.100 -12.257  25.469  0.00  0.00     0.111 A 
HETATM   33  N   UNK     0      -1.765 -15.039  25.113  0.00  0.00    -0.302 N 
HETATM   34  N   UNK     0      -0.667 -16.020  25.600  0.00  0.00    -0.300 N 
HETATM   35  HN  UNK     0      -2.583 -15.283  24.554  1.00  0.00     0.186 HD
HETATM   36  C   UNK     0      -0.619 -17.530  25.323  0.00  0.00     0.177 C 
HETATM   37  C   UNK     0       1.621 -15.768  27.078  0.00  0.00     0.070 C 
ENDBRANCH  24  26
ENDBRANCH  21  24
ENDBRANCH  14  16
ENDBRANCH   5  14
TORSDOF 6
ENDMDL
MODEL 17
REMARK VINA RESULT:      -7.0      4.988      7.928
REMARK  6 active torsions:
REMARK  status: ('A' for Active; 'I' for Inactive)
REMARK    1  A    between atoms: C_3  and  S_21 
REMARK    2  A    between atoms: C_5  and  N_10 
REMARK    3  A    between atoms: C_9  and  N_10 
REMARK    4  A    between atoms: C_14  and  N_17 
REMARK    5  A    between atoms: N_17  and  C_18 
REMARK    6  A    between atoms: S_21  and  N_33 
ROOT
HETATM    1  C   UNK     0      -2.924  -1.442  19.998  0.00  0.00     0.040 A 
HETATM    2  C   UNK     0      -1.827  -0.886  20.924  0.00  0.00    -0.064 A 
HETATM    3  C   UNK     0      -2.099   0.370  21.774  0.00  0.00     0.064 A 
HETATM    4  C   UNK     0      -3.469   1.069  21.697  0.00  0.00     0.105 A 
HETATM    5  C   UNK     0      -4.566   0.513  20.771  0.00  0.00     0.009 A 
HETATM    6  C   UNK     0      -4.294  -0.742  19.921  0.00  0.00     0.057 A 
HETATM    7  C   UNK     0      -0.457  -1.585  21.001  0.00  0.00     0.044 C 
ENDROOT
BRANCH   3   8
HETATM    8  S   UNK     0      -1.001   0.925  22.700  0.00  0.00     0.253 S 
HETATM    9  O   UNK     0       0.138   1.925  22.971  0.00  0.00    -0.201 OA
HETATM   10  O   UNK     0      -0.623   1.968  21.633  0.00  0.00    -0.201 OA
BRANCH   8  11
HETATM   11  N   UNK     0      -0.783   0.287  24.105  0.00  0.00    -0.324 N 
HETATM   12  HN2 UNK     0      -1.540   0.316  24.788  1.00  0.00     0.169 HD
HETATM   13  HN1 UNK     0       0.111  -0.151  24.325  1.00  0.00     0.169 HD
ENDBRANCH   8  11
ENDBRANCH   3   8
BRANCH   5  14
HETATM   14  N   UNK     0      -5.936   1.213  20.694  0.00  0.00    -0.199 N 
HETATM   15  HN  UNK     0      -6.087   1.967  20.024  1.00  0.00     0.183 HD
BRANCH  14  16
HETATM   16  C   UNK     0      -7.079   0.773  21.628  0.00  0.00     0.679 A 
HETATM   17  N   UNK     0      -7.805   1.816  22.499  0.00  0.00    -0.226 N 
HETATM   18  C   UNK     0      -8.947   1.377  23.433  0.00  0.00     0.145 A 
HETATM   19  HN  UNK     0      -7.529   2.796  22.457  1.00  0.00     0.177 HD
HETATM   20  C   UNK     0      -9.364  -0.104  23.497  0.00  0.00     0.097 A 
HETATM   21  C   UNK     0      -8.638  -1.147  22.626  0.00  0.00     0.100 A 
HETATM   22  N   UNK     0      -7.495  -0.707  21.691  0.00  0.00    -0.180 N 
HETATM   23  HN  UNK     0      -7.014  -1.398  21.115  1.00  0.00     0.185 HD
BRANCH  21  24
HETATM   24  N   UNK     0      -9.056  -2.632  22.690  0.00  0.00    -0.347 N 
HETATM   25  C   UNK     0     -10.470  -3.052  22.255  0.00  0.00     0.157 C 
BRANCH  24  26
HETATM   26  C   UNK     0      -8.070  -3.679  23.184  0.00  0.00    -0.004 A 
HETATM   27  C   UNK     0      -8.204  -5.153  22.718  0.00  0.00     0.057 A 
HETATM   28  C   UNK     0      -7.205  -6.213  23.218  0.00  0.00     0.048 A 
HETATM   29  C   UNK     0      -6.072  -5.810  24.180  0.00  0.00    -0.010 A 
HETATM   30  C   UNK     0      -5.937  -4.335  24.647  0.00  0.00     0.039 A 
HETATM   31  C   UNK     0      -4.934  -6.629  24.846  0.00  0.00     0.032 A 
HETATM   32  C   UNK     0      -6.937  -3.276  24.146  0.00  0.00     0.111 A 
HETATM   33  N   UNK     0      -4.716  -4.244  25.599  0.00  0.00    -0.302 N 
HETATM   34  N   UNK     0      -4.097  -5.660  25.722  0.00  0.00    -0.300 N 
HETATM   35  HN  UNK     0      -4.380  -3.400  26.064  1.00  0.00     0.186 HD
HETATM   36  C   UNK     0      -2.869  -6.038  26.564  0.00  0.00     0.177 C 
HETATM   37  C   UNK     0      -4.684  -8.116  24.669  0.00  0.00     0.070 C 
ENDBRANCH  24  26
ENDBRANCH  21  24
ENDBRANCH  14  16
ENDBRANCH   5  14
TORSDOF 6
ENDMDL
MODEL 18
REMARK VINA RESULT:      -7.0      3.964      6.945
REMARK  6 active torsions:
REMARK  status: ('A' for Active; 'I' for Inactive)
REMARK    1  A    between atoms: C_3  and  S_21 
REMARK    2  A    between atoms: C_5  and  N_10 
REMARK    3  A    between atoms: C_9  and  N_10 
REMARK    4  A    between atoms: C_14  and  N_17 
REMARK    5  A    between atoms: N_17  and  C_18 
REMARK    6  A    between atoms: S_21  and  N_33 
ROOT
HETATM    1  C   UNK     0      -2.146  -1.497  19.908  0.00  0.00     0.040 A 
HETATM    2  C   UNK     0      -1.320  -0.630  20.877  0.00  0.00    -0.064 A 
HETATM    3  C   UNK     0      -2.005   0.488  21.684  0.00  0.00     0.064 A 
HETATM    4  C   UNK     0      -3.516   0.739  21.523  0.00  0.00     0.105 A 
HETATM    5  C   UNK     0      -4.341  -0.128  20.556  0.00  0.00     0.009 A 
HETATM    6  C   UNK     0      -3.656  -1.246  19.748  0.00  0.00     0.057 A 
HETATM    7  C   UNK     0       0.190  -0.881  21.037  0.00  0.00     0.044 C 
ENDROOT
BRANCH   3   8
HETATM    8  S   UNK     0      -1.178   1.355  22.652  0.00  0.00     0.253 S 
HETATM    9  O   UNK     0      -0.568   1.590  24.046  0.00  0.00    -0.201 OA
HETATM   10  O   UNK     0      -1.390   0.317  23.769  0.00  0.00    -0.201 OA
BRANCH   8  11
HETATM   11  N   UNK     0      -0.577   2.704  22.156  0.00  0.00    -0.324 N 
HETATM   12  HN2 UNK     0      -1.189   3.514  22.055  1.00  0.00     0.169 HD
HETATM   13  HN1 UNK     0       0.417   2.763  21.939  1.00  0.00     0.169 HD
ENDBRANCH   8  11
ENDBRANCH   3   8
BRANCH   5  14
HETATM   14  N   UNK     0      -5.853   0.123  20.395  0.00  0.00    -0.199 N 
HETATM   15  HN  UNK     0      -6.221   0.464  19.507  1.00  0.00     0.183 HD
BRANCH  14  16
HETATM   16  C   UNK     0      -6.807  -0.141  21.575  0.00  0.00     0.679 A 
HETATM   17  N   UNK     0      -8.252   0.390  21.530  0.00  0.00    -0.226 N 
HETATM   18  C   UNK     0      -9.206   0.127  22.708  0.00  0.00     0.145 A 
HETATM   19  HN  UNK     0      -8.577   0.917  20.719  1.00  0.00     0.177 HD
HETATM   20  C   UNK     0      -8.716  -0.668  23.933  0.00  0.00     0.097 A 
HETATM   21  C   UNK     0      -7.271  -1.199  23.978  0.00  0.00     0.100 A 
HETATM   22  N   UNK     0      -6.317  -0.935  22.798  0.00  0.00    -0.180 N 
HETATM   23  HN  UNK     0      -5.360  -1.287  22.828  1.00  0.00     0.185 HD
BRANCH  21  24
HETATM   24  N   UNK     0      -6.780  -1.997  25.207  0.00  0.00    -0.347 N 
HETATM   25  C   UNK     0      -7.587  -1.968  26.514  0.00  0.00     0.157 C 
BRANCH  24  26
HETATM   26  C   UNK     0      -5.497  -2.809  25.122  0.00  0.00    -0.004 A 
HETATM   27  C   UNK     0      -4.126  -2.121  25.348  0.00  0.00     0.057 A 
HETATM   28  C   UNK     0      -2.827  -2.944  25.262  0.00  0.00     0.048 A 
HETATM   29  C   UNK     0      -2.889  -4.451  24.951  0.00  0.00    -0.010 A 
HETATM   30  C   UNK     0      -4.261  -5.140  24.725  0.00  0.00     0.039 A 
HETATM   31  C   UNK     0      -1.781  -5.527  24.802  0.00  0.00     0.032 A 
HETATM   32  C   UNK     0      -5.559  -4.317  24.811  0.00  0.00     0.111 A 
HETATM   33  N   UNK     0      -4.001  -6.642  24.435  0.00  0.00    -0.302 N 
HETATM   34  N   UNK     0      -2.469  -6.881  24.483  0.00  0.00    -0.300 N 
HETATM   35  HN  UNK     0      -4.712  -7.349  24.246  1.00  0.00     0.186 HD
HETATM   36  C   UNK     0      -1.757  -8.222  24.254  0.00  0.00     0.177 C 
HETATM   37  C   UNK     0      -0.288  -5.295  24.943  0.00  0.00     0.070 C 
ENDBRANCH  24  26
ENDBRANCH  21  24
ENDBRANCH  14  16
ENDBRANCH   5  14
TORSDOF 6
ENDMDL
MODEL 19
REMARK VINA RESULT:      -6.8      4.545      8.104
REMARK  6 active torsions:
REMARK  status: ('A' for Active; 'I' for Inactive)
REMARK    1  A    between atoms: C_3  and  S_21 
REMARK    2  A    between atoms: C_5  and  N_10 
REMARK    3  A    between atoms: C_9  and  N_10 
REMARK    4  A    between atoms: C_14  and  N_17 
REMARK    5  A    between atoms: N_17  and  C_18 
REMARK    6  A    between atoms: S_21  and  N_33 
ROOT
HETATM    1  C   UNK     0      -0.814  -3.381  21.798  0.00  0.00     0.040 A 
HETATM    2  C   UNK     0      -0.775  -1.845  21.895  0.00  0.00    -0.064 A 
HETATM    3  C   UNK     0      -1.418  -1.134  23.101  0.00  0.00     0.064 A 
HETATM    4  C   UNK     0      -2.099  -1.959  24.208  0.00  0.00     0.105 A 
HETATM    5  C   UNK     0      -2.137  -3.495  24.110  0.00  0.00     0.009 A 
HETATM    6  C   UNK     0      -1.495  -4.206  22.905  0.00  0.00     0.057 A 
HETATM    7  C   UNK     0      -0.094  -1.020  20.788  0.00  0.00     0.044 C 
ENDROOT
BRANCH   3   8
HETATM    8  S   UNK     0      -1.379   0.403  23.199  0.00  0.00     0.253 S 
HETATM    9  O   UNK     0      -0.721   1.692  23.724  0.00  0.00    -0.201 OA
HETATM   10  O   UNK     0      -0.123   0.319  24.084  0.00  0.00    -0.201 OA
BRANCH   8  11
HETATM   11  N   UNK     0      -2.465   1.249  22.469  0.00  0.00    -0.324 N 
HETATM   12  HN2 UNK     0      -3.230   0.771  21.991  1.00  0.00     0.169 HD
HETATM   13  HN1 UNK     0      -2.401   2.266  22.476  1.00  0.00     0.169 HD
ENDBRANCH   8  11
ENDBRANCH   3   8
BRANCH   5  14
HETATM   14  N   UNK     0      -2.819  -4.321  25.218  0.00  0.00    -0.199 N 
HETATM   15  HN  UNK     0      -2.422  -4.339  26.157  1.00  0.00     0.183 HD
BRANCH  14  16
HETATM   16  C   UNK     0      -4.099  -5.119  24.907  0.00  0.00     0.679 A 
HETATM   17  N   UNK     0      -4.305  -6.515  25.523  0.00  0.00    -0.226 N 
HETATM   18  C   UNK     0      -5.584  -7.313  25.212  0.00  0.00     0.145 A 
HETATM   19  HN  UNK     0      -3.593  -6.911  26.137  1.00  0.00     0.177 HD
HETATM   20  C   UNK     0      -6.659  -6.715  24.285  0.00  0.00     0.097 A 
HETATM   21  C   UNK     0      -6.453  -5.318  23.669  0.00  0.00     0.100 A 
HETATM   22  N   UNK     0      -5.173  -4.520  23.980  0.00  0.00    -0.180 N 
HETATM   23  HN  UNK     0      -5.037  -3.596  23.572  1.00  0.00     0.185 HD
BRANCH  21  24
HETATM   24  N   UNK     0      -7.531  -4.719  22.739  0.00  0.00    -0.347 N 
HETATM   25  C   UNK     0      -8.441  -5.647  21.919  0.00  0.00     0.157 C 
BRANCH  24  26
HETATM   26  C   UNK     0      -7.691  -3.210  22.636  0.00  0.00    -0.004 A 
HETATM   27  C   UNK     0      -9.031  -2.542  23.041  0.00  0.00     0.057 A 
HETATM   28  C   UNK     0      -9.193  -1.014  22.936  0.00  0.00     0.048 A 
HETATM   29  C   UNK     0      -8.025  -0.149  22.428  0.00  0.00    -0.010 A 
HETATM   30  C   UNK     0      -6.684  -0.816  22.023  0.00  0.00     0.039 A 
HETATM   31  C   UNK     0      -7.882   1.382  22.215  0.00  0.00     0.032 A 
HETATM   32  C   UNK     0      -6.522  -2.344  22.128  0.00  0.00     0.111 A 
HETATM   33  N   UNK     0      -5.713   0.301  21.559  0.00  0.00    -0.302 N 
HETATM   34  N   UNK     0      -6.453   1.659  21.678  0.00  0.00    -0.300 N 
HETATM   35  HN  UNK     0      -4.755   0.167  21.233  1.00  0.00     0.186 HD
HETATM   36  C   UNK     0      -5.874   3.037  21.325  0.00  0.00     0.177 C 
HETATM   37  C   UNK     0      -8.953   2.424  22.485  0.00  0.00     0.070 C 
ENDBRANCH  24  26
ENDBRANCH  21  24
ENDBRANCH  14  16
ENDBRANCH   5  14
TORSDOF 6
ENDMDL
MODEL 20
REMARK VINA RESULT:      -6.7      4.927      8.285
REMARK  6 active torsions:
REMARK  status: ('A' for Active; 'I' for Inactive)
REMARK    1  A    between atoms: C_3  and  S_21 
REMARK    2  A    between atoms: C_5  and  N_10 
REMARK    3  A    between atoms: C_9  and  N_10 
REMARK    4  A    between atoms: C_14  and  N_17 
REMARK    5  A    between atoms: N_17  and  C_18 
REMARK    6  A    between atoms: S_21  and  N_33 
ROOT
HETATM    1  C   UNK     0     -10.083  -1.350  22.938  0.00  0.00     0.040 A 
HETATM    2  C   UNK     0      -9.535  -2.780  23.102  0.00  0.00    -0.064 A 
HETATM    3  C   UNK     0      -8.110  -3.118  22.626  0.00  0.00     0.064 A 
HETATM    4  C   UNK     0      -7.232  -2.026  21.986  0.00  0.00     0.105 A 
HETATM    5  C   UNK     0      -7.780  -0.597  21.822  0.00  0.00     0.009 A 
HETATM    6  C   UNK     0      -9.205  -0.259  22.298  0.00  0.00     0.057 A 
HETATM    7  C   UNK     0     -10.412  -3.871  23.742  0.00  0.00     0.044 C 
ENDROOT
BRANCH   3   8
HETATM    8  S   UNK     0      -7.562  -4.548  22.790  0.00  0.00     0.253 S 
HETATM    9  O   UNK     0      -7.510  -6.019  22.337  0.00  0.00    -0.201 OA
HETATM   10  O   UNK     0      -8.409  -5.014  21.593  0.00  0.00    -0.201 OA
BRANCH   8  11
HETATM   11  N   UNK     0      -6.542  -4.857  23.927  0.00  0.00    -0.324 N 
HETATM   12  HN2 UNK     0      -6.462  -4.211  24.712  1.00  0.00     0.169 HD
HETATM   13  HN1 UNK     0      -5.968  -5.697  23.874  1.00  0.00     0.169 HD
ENDBRANCH   8  11
ENDBRANCH   3   8
BRANCH   5  14
HETATM   14  N   UNK     0      -6.903   0.495  21.182  0.00  0.00    -0.199 N 
HETATM   15  HN  UNK     0      -7.039   0.751  20.204  1.00  0.00     0.183 HD
BRANCH  14  16
HETATM   16  C   UNK     0      -5.819   1.202  22.019  0.00  0.00     0.679 A 
HETATM   17  N   UNK     0      -6.186   2.428  22.875  0.00  0.00    -0.226 N 
HETATM   18  C   UNK     0      -5.104   3.135  23.711  0.00  0.00     0.145 A 
HETATM   19  HN  UNK     0      -7.146   2.773  22.888  1.00  0.00     0.177 HD
HETATM   20  C   UNK     0      -3.654   2.615  23.692  0.00  0.00     0.097 A 
HETATM   21  C   UNK     0      -3.287   1.389  22.835  0.00  0.00     0.100 A 
HETATM   22  N   UNK     0      -4.371   0.682  21.999  0.00  0.00    -0.180 N 
HETATM   23  HN  UNK     0      -4.128  -0.130  21.432  1.00  0.00     0.185 HD
BRANCH  21  24
HETATM   24  N   UNK     0      -1.833   0.867  22.816  0.00  0.00    -0.347 N 
HETATM   25  C   UNK     0      -0.661   1.858  22.890  0.00  0.00     0.157 C 
BRANCH  24  26
HETATM   26  C   UNK     0      -1.563  -0.627  22.724  0.00  0.00    -0.004 A 
HETATM   27  C   UNK     0      -0.693  -1.188  21.568  0.00  0.00     0.057 A 
HETATM   28  C   UNK     0      -0.419  -2.700  21.475  0.00  0.00     0.048 A 
HETATM   29  C   UNK     0      -1.008  -3.656  22.529  0.00  0.00    -0.010 A 
HETATM   30  C   UNK     0      -1.879  -3.095  23.685  0.00  0.00     0.039 A 
HETATM   31  C   UNK     0      -0.914  -5.195  22.703  0.00  0.00     0.032 A 
HETATM   32  C   UNK     0      -2.152  -1.583  23.778  0.00  0.00     0.111 A 
HETATM   33  N   UNK     0      -2.322  -4.287  24.573  0.00  0.00    -0.302 N 
HETATM   34  N   UNK     0      -1.726  -5.585  23.967  0.00  0.00    -0.300 N 
HETATM   35  HN  UNK     0      -2.903  -4.229  25.410  1.00  0.00     0.186 HD
HETATM   36  C   UNK     0      -1.907  -7.006  24.520  0.00  0.00     0.177 C 
HETATM   37  C   UNK     0      -0.160  -6.151  21.797  0.00  0.00     0.070 C 
ENDBRANCH  24  26
ENDBRANCH  21  24
ENDBRANCH  14  16
ENDBRANCH   5  14
TORSDOF 6
ENDMDL
