REMARK  6 active torsions:
REMARK  status: ('A' for Active; 'I' for Inactive)
REMARK    1  A    between atoms: C_3  and  S_21 
REMARK    2  A    between atoms: C_5  and  N_10 
REMARK    3  A    between atoms: C_9  and  N_10 
REMARK    4  A    between atoms: C_14  and  N_17 
REMARK    5  A    between atoms: N_17  and  C_18 
REMARK    6  A    between atoms: S_21  and  N_33 
ROOT
HETATM    1  C   UNK     0       8.488 -37.589   0.000  0.00  0.00     0.040 A 
HETATM    2  C   UNK     0       7.154 -38.359   0.000  0.00  0.00    -0.064 A 
HETATM    3  C   UNK     0       7.154 -39.899   0.000  0.00  0.00     0.064 A 
HETATM    4  C   UNK     0       8.488 -40.669   0.000  0.00  0.00     0.105 A 
HETATM    5  C   UNK     0       9.821 -39.899   0.000  0.00  0.00     0.009 A 
HETATM    6  C   UNK     0       9.821 -38.359   0.000  0.00  0.00     0.057 A 
HETATM    7  C   UNK     0       5.821 -37.589   0.000  0.00  0.00     0.044 C 
ENDROOT
BRANCH   3   8
HETATM    8  S   UNK     0       5.820 -40.669   0.000  0.00  0.00     0.253 S 
HETATM    9  O   UNK     0       5.046 -42.000   0.000  0.00  0.00    -0.201 OA
HETATM   10  O   UNK     0       6.586 -42.004   0.000  0.00  0.00    -0.201 OA
BRANCH   8  11
HETATM   11  N   UNK     0       4.476 -39.881   0.000  0.00  0.00    -0.324 N 
HETATM   12  HN2 UNK     0       4.497 -38.861   0.000  1.00  0.00     0.169 HD
HETATM   13  HN1 UNK     0       3.593 -40.391   0.000  1.00  0.00     0.169 HD
ENDBRANCH   8  11
ENDBRANCH   3   8
BRANCH   5  14
HETATM   14  N   UNK     0      11.155 -40.669   0.000  0.00  0.00    -0.199 N 
HETATM   15  HN  UNK     0      11.155 -41.689   0.000  1.00  0.00     0.183 HD
BRANCH  14  16
HETATM   16  C   UNK     0      12.489 -39.899   0.000  0.00  0.00     0.679 A 
HETATM   17  N   UNK     0      12.489 -38.359   0.000  0.00  0.00    -0.226 N 
HETATM   18  C   UNK     0      13.822 -37.589   0.000  0.00  0.00     0.145 A 
HETATM   19  HN  UNK     0      11.606 -37.849   0.000  1.00  0.00     0.177 HD
HETATM   20  C   UNK     0      15.156 -38.359   0.000  0.00  0.00     0.097 A 
HETATM   21  C   UNK     0      15.156 -39.899   0.000  0.00  0.00     0.100 A 
HETATM   22  N   UNK     0      13.822 -40.669   0.000  0.00  0.00    -0.180 N 
HETATM   23  HN  UNK     0      13.822 -41.689   0.000  1.00  0.00     0.185 HD
BRANCH  21  24
HETATM   24  N   UNK     0      16.494 -40.671   0.000  0.00  0.00    -0.347 N 
HETATM   25  C   UNK     0      17.825 -39.902   0.000  0.00  0.00     0.157 C 
BRANCH  24  26
HETATM   26  C   UNK     0      16.494 -42.192   0.000  0.00  0.00    -0.004 A 
HETATM   27  C   UNK     0      15.151 -42.968   0.000  0.00  0.00     0.057 A 
HETATM   28  C   UNK     0      15.151 -44.508   0.000  0.00  0.00     0.048 A 
HETATM   29  C   UNK     0      16.485 -45.278   0.000  0.00  0.00    -0.010 A 
HETATM   30  C   UNK     0      17.829 -44.502   0.000  0.00  0.00     0.039 A 
HETATM   31  C   UNK     0      16.808 -46.796   0.000  0.00  0.00     0.032 A 
HETATM   32  C   UNK     0      17.828 -42.962   0.000  0.00  0.00     0.111 A 
HETATM   33  N   UNK     0      18.982 -45.540   0.000  0.00  0.00    -0.302 N 
HETATM   34  N   UNK     0      18.351 -46.957   0.000  0.00  0.00    -0.300 N 
HETATM   35  HN  UNK     0      19.980 -45.328   0.000  1.00  0.00     0.186 HD
HETATM   36  C   UNK     0      19.119 -48.287   0.000  0.00  0.00     0.177 C 
HETATM   37  C   UNK     0      15.792 -47.924   0.000  0.00  0.00     0.070 C 
ENDBRANCH  24  26
ENDBRANCH  21  24
ENDBRANCH  14  16
ENDBRANCH   5  14
TORSDOF 6
