MODEL 1
REMARK VINA RESULT:     -12.8      0.000      0.000
REMARK  6 active torsions:
REMARK  status: ('A' for Active; 'I' for Inactive)
REMARK    1  A    between atoms: C2_2  and  N12_12 
REMARK       I    between atoms: C13_13  and  N12_12 
REMARK       I    between atoms: C13_13  and  N14_14 
REMARK    2  A    between atoms: C16_18  and  N14_14 
REMARK    3  A    between atoms: C19_21  and  O22_24 
REMARK    4  A    between atoms: O22_24  and  C23_25 
REMARK    5  A    between atoms: C27_29  and  C29_32 
REMARK       I    between atoms: N30_33  and  C29_32 
REMARK    6  A    between atoms: C6_6  and  C7_8 
ROOT
HETATM    1  C1  BAX A1201       5.391  -3.716   9.741  1.00 31.56     0.047 A 
HETATM    2  C2  BAX A1201       4.124  -3.814   9.184  1.00 31.50     0.037 A 
HETATM    3  C3  BAX A1201       3.851  -3.048   8.036  1.00 37.94     0.031 A 
HETATM    4  C4  BAX A1201       4.782  -2.183   7.451  1.00 35.50     0.027 A 
HETATM    5  C5  BAX A1201       6.063  -2.092   8.026  1.00 33.51     0.049 A 
HETATM    6  C6  BAX A1201       6.361  -2.902   9.211  1.00 27.50     0.071 A 
HETATM    7 CL11 BAX A1201       7.307  -1.014   7.357  1.00 50.98    -0.083 Cl
ENDROOT
BRANCH   6   8
HETATM    8  C7  BAX A1201       7.729  -2.829   9.873  1.00 36.87     0.419 C 
HETATM    9  F8  BAX A1201       8.668  -3.222   9.066  1.00 39.65    -0.166 F 
HETATM   10  F9  BAX A1201       8.031  -1.652  10.285  1.00 37.84    -0.166 F 
HETATM   11  F10 BAX A1201       7.707  -3.562  10.941  1.00 36.35    -0.166 F 
ENDBRANCH   6   8
BRANCH   2  12
HETATM   12  N12 BAX A1201       3.100  -4.573   9.744  1.00 26.26    -0.309 N 
HETATM   13  C13 BAX A1201       3.021  -5.004  11.034  1.00 27.98     0.325 C 
HETATM   14  N14 BAX A1201       1.927  -5.743  11.298  1.00 25.84    -0.309 N 
HETATM   15  O15 BAX A1201       3.886  -4.744  11.838  1.00 28.48    -0.247 OA
HETATM   16  H14 BAX A1201       1.387  -6.083  10.502  1.00  0.00     0.170 HD
HETATM   17  H12 BAX A1201       2.331  -4.832   9.126  1.00  0.00     0.170 HD
BRANCH  14  18
HETATM   18  C16 BAX A1201       1.483  -6.074  12.546  1.00 26.24     0.036 A 
HETATM   19  C21 BAX A1201       1.898  -5.450  13.696  1.00 29.02     0.032 A 
HETATM   20  C20 BAX A1201       1.551  -5.856  14.976  1.00 31.31     0.039 A 
HETATM   21  C19 BAX A1201       0.728  -6.935  15.106  1.00 29.38     0.076 A 
HETATM   22  C18 BAX A1201       0.295  -7.580  13.977  1.00 29.57     0.039 A 
HETATM   23  C17 BAX A1201       0.657  -7.170  12.697  1.00 29.00     0.032 A 
BRANCH  21  24
HETATM   24  O22 BAX A1201       0.244  -7.293  16.353  1.00 34.12    -0.311 OA
BRANCH  24  25
HETATM   25  C23 BAX A1201       0.971  -8.097  17.207  1.00 33.06     0.079 A 
HETATM   26  C24 BAX A1201       2.084  -8.871  16.853  1.00 28.70     0.054 A 
HETATM   27  C25 BAX A1201       2.701  -9.585  17.887  1.00 29.56     0.091 A 
HETATM   28  N26 BAX A1201       2.210  -9.585  19.142  1.00 25.85    -0.361 N 
HETATM   29  C27 BAX A1201       1.099  -8.899  19.474  1.00 30.06     0.103 A 
HETATM   30  H26 BAX A1201       2.695 -10.121  19.862  1.00  0.00     0.165 HD
HETATM   31  C28 BAX A1201       0.442  -8.118  18.500  1.00 28.65     0.072 A 
BRANCH  29  32
HETATM   32  C29 BAX A1201       0.594  -8.950  20.870  1.00 29.38     0.267 C 
HETATM   33  N30 BAX A1201       1.117  -9.853  21.719  1.00 37.04    -0.360 N 
HETATM   34  C31 BAX A1201       0.641  -9.969  23.086  1.00 38.90     0.149 C 
HETATM   35  H30 BAX A1201       1.863 -10.469  21.396  1.00  0.00     0.162 HD
HETATM   36  O32 BAX A1201      -0.291  -8.173  21.190  1.00 36.85    -0.266 OA
ENDBRANCH  29  32
ENDBRANCH  24  25
ENDBRANCH  21  24
ENDBRANCH  14  18
ENDBRANCH   2  12
TORSDOF 6
ENDMDL
MODEL 2
REMARK VINA RESULT:     -12.0      1.704      2.184
REMARK  6 active torsions:
REMARK  status: ('A' for Active; 'I' for Inactive)
REMARK    1  A    between atoms: C2_2  and  N12_12 
REMARK       I    between atoms: C13_13  and  N12_12 
REMARK       I    between atoms: C13_13  and  N14_14 
REMARK    2  A    between atoms: C16_18  and  N14_14 
REMARK    3  A    between atoms: C19_21  and  O22_24 
REMARK    4  A    between atoms: O22_24  and  C23_25 
REMARK    5  A    between atoms: C27_29  and  C29_32 
REMARK       I    between atoms: N30_33  and  C29_32 
REMARK    6  A    between atoms: C6_6  and  C7_8 
ROOT
HETATM    1  C1  BAX A1201       3.670  -2.598   8.669  1.00 31.56     0.047 A 
HETATM    2  C2  BAX A1201       3.870  -3.639   9.566  1.00 31.50     0.037 A 
HETATM    3  C3  BAX A1201       5.195  -3.982   9.887  1.00 37.94     0.031 A 
HETATM    4  C4  BAX A1201       6.310  -3.345   9.331  1.00 35.50     0.027 A 
HETATM    5  C5  BAX A1201       6.094  -2.293   8.422  1.00 33.51     0.049 A 
HETATM    6  C6  BAX A1201       4.715  -1.916   8.097  1.00 27.50     0.071 A 
HETATM    7 CL11 BAX A1201       7.448  -1.431   7.659  1.00 50.98    -0.083 Cl
ENDROOT
BRANCH   6   8
HETATM    8  C7  BAX A1201       4.433  -0.791   7.114  1.00 36.87     0.419 C 
HETATM    9  F8  BAX A1201       4.849   0.353   7.567  1.00 39.65    -0.166 F 
HETATM   10  F9  BAX A1201       4.969  -0.977   5.963  1.00 37.84    -0.166 F 
HETATM   11  F10 BAX A1201       3.158  -0.756   6.886  1.00 36.35    -0.166 F 
ENDBRANCH   6   8
BRANCH   2  12
HETATM   12  N12 BAX A1201       2.831  -4.395  10.101  1.00 26.26    -0.309 N 
HETATM   13  C13 BAX A1201       2.764  -4.907  11.362  1.00 27.98     0.325 C 
HETATM   14  N14 BAX A1201       1.649  -5.620  11.605  1.00 25.84    -0.309 N 
HETATM   15  O15 BAX A1201       3.656  -4.731  12.160  1.00 28.48    -0.247 OA
HETATM   16  H14 BAX A1201       1.078  -5.887  10.802  1.00  0.00     0.170 HD
HETATM   17  H12 BAX A1201       2.039  -4.585   9.486  1.00  0.00     0.170 HD
BRANCH  14  18
HETATM   18  C16 BAX A1201       1.220  -6.015  12.839  1.00 26.24     0.036 A 
HETATM   19  C21 BAX A1201       1.542  -5.366  14.005  1.00 29.02     0.032 A 
HETATM   20  C20 BAX A1201       1.217  -5.825  15.273  1.00 31.31     0.039 A 
HETATM   21  C19 BAX A1201       0.516  -6.991  15.373  1.00 29.38     0.076 A 
HETATM   22  C18 BAX A1201       0.177  -7.663  14.228  1.00 29.57     0.039 A 
HETATM   23  C17 BAX A1201       0.517  -7.198  12.961  1.00 29.00     0.032 A 
BRANCH  21  24
HETATM   24  O22 BAX A1201       0.050  -7.416  16.605  1.00 34.12    -0.311 OA
BRANCH  24  25
HETATM   25  C23 BAX A1201       0.844  -8.151  17.464  1.00 33.06     0.079 A 
HETATM   26  C24 BAX A1201       2.009  -8.844  17.108  1.00 28.70     0.054 A 
HETATM   27  C25 BAX A1201       2.688  -9.493  18.146  1.00 29.56     0.091 A 
HETATM   28  N26 BAX A1201       2.212  -9.510  19.406  1.00 25.85    -0.361 N 
HETATM   29  C27 BAX A1201       1.055  -8.904  19.741  1.00 30.06     0.103 A 
HETATM   30  H26 BAX A1201       2.742  -9.997  20.129  1.00  0.00     0.165 HD
HETATM   31  C28 BAX A1201       0.331  -8.190  18.762  1.00 28.65     0.072 A 
BRANCH  29  32
HETATM   32  C29 BAX A1201       0.570  -8.970  21.142  1.00 29.38     0.267 C 
HETATM   33  N30 BAX A1201       1.148  -9.839  21.992  1.00 37.04    -0.360 N 
HETATM   34  C31 BAX A1201       0.694  -9.969  23.365  1.00 38.90     0.149 C 
HETATM   35  H30 BAX A1201       1.921 -10.418  21.664  1.00  0.00     0.162 HD
HETATM   36  O32 BAX A1201      -0.351  -8.239  21.468  1.00 36.85    -0.266 OA
ENDBRANCH  29  32
ENDBRANCH  24  25
ENDBRANCH  21  24
ENDBRANCH  14  18
ENDBRANCH   2  12
TORSDOF 6
ENDMDL
MODEL 3
REMARK VINA RESULT:     -11.4      5.936     12.111
REMARK  6 active torsions:
REMARK  status: ('A' for Active; 'I' for Inactive)
REMARK    1  A    between atoms: C2_2  and  N12_12 
REMARK       I    between atoms: C13_13  and  N12_12 
REMARK       I    between atoms: C13_13  and  N14_14 
REMARK    2  A    between atoms: C16_18  and  N14_14 
REMARK    3  A    between atoms: C19_21  and  O22_24 
REMARK    4  A    between atoms: O22_24  and  C23_25 
REMARK    5  A    between atoms: C27_29  and  C29_32 
REMARK       I    between atoms: N30_33  and  C29_32 
REMARK    6  A    between atoms: C6_6  and  C7_8 
ROOT
HETATM    1  C1  BAX A1201       2.445  -5.301  12.806  1.00 31.56     0.047 A 
HETATM    2  C2  BAX A1201       3.009  -5.677  11.595  1.00 31.50     0.037 A 
HETATM    3  C3  BAX A1201       2.426  -6.757  10.907  1.00 37.94     0.031 A 
HETATM    4  C4  BAX A1201       1.329  -7.476  11.395  1.00 35.50     0.027 A 
HETATM    5  C5  BAX A1201       0.767  -7.084  12.624  1.00 33.51     0.049 A 
HETATM    6  C6  BAX A1201       1.357  -5.948  13.337  1.00 27.50     0.071 A 
HETATM    7 CL11 BAX A1201      -0.621  -7.943  13.326  1.00 50.98    -0.083 Cl
ENDROOT
BRANCH   6   8
HETATM    8  C7  BAX A1201       0.789  -5.495  14.674  1.00 36.87     0.419 C 
HETATM    9  F8  BAX A1201      -0.413  -5.021  14.543  1.00 39.65    -0.166 F 
HETATM   10  F9  BAX A1201       0.750  -6.430  15.551  1.00 37.84    -0.166 F 
HETATM   11  F10 BAX A1201       1.581  -4.600  15.174  1.00 36.35    -0.166 F 
ENDBRANCH   6   8
BRANCH   2  12
HETATM   12  N12 BAX A1201       4.156  -5.087  11.071  1.00 26.26    -0.309 N 
HETATM   13  C13 BAX A1201       4.207  -4.124  10.109  1.00 27.98     0.325 C 
HETATM   14  N14 BAX A1201       5.456  -3.749   9.775  1.00 25.84    -0.309 N 
HETATM   15  O15 BAX A1201       3.199  -3.681   9.608  1.00 28.48    -0.247 OA
HETATM   16  H14 BAX A1201       6.225  -4.338  10.096  1.00  0.00     0.170 HD
HETATM   17  H12 BAX A1201       5.048  -5.408  11.446  1.00  0.00     0.170 HD
BRANCH  14  18
HETATM   18  C16 BAX A1201       5.777  -2.643   9.042  1.00 26.24     0.036 A 
HETATM   19  C21 BAX A1201       6.390  -1.532   9.563  1.00 29.02     0.032 A 
HETATM   20  C20 BAX A1201       6.611  -0.356   8.860  1.00 31.31     0.039 A 
HETATM   21  C19 BAX A1201       6.207  -0.302   7.559  1.00 29.38     0.076 A 
HETATM   22  C18 BAX A1201       5.592  -1.395   7.007  1.00 29.57     0.039 A 
HETATM   23  C17 BAX A1201       5.368  -2.567   7.725  1.00 29.00     0.032 A 
BRANCH  21  24
HETATM   24  O22 BAX A1201       6.528   0.796   6.778  1.00 34.12    -0.311 OA
BRANCH  24  25
HETATM   25  C23 BAX A1201       5.552   1.547   6.152  1.00 33.06     0.079 A 
HETATM   26  C24 BAX A1201       5.377   1.669   4.767  1.00 28.70     0.054 A 
HETATM   27  C25 BAX A1201       4.297   2.452   4.344  1.00 29.56     0.091 A 
HETATM   28  N26 BAX A1201       3.509   3.110   5.217  1.00 25.85    -0.361 N 
HETATM   29  C27 BAX A1201       3.715   3.053   6.548  1.00 30.06     0.103 A 
HETATM   30  H26 BAX A1201       2.734   3.668   4.860  1.00  0.00     0.165 HD
HETATM   31  C28 BAX A1201       4.757   2.250   7.060  1.00 28.65     0.072 A 
BRANCH  29  32
HETATM   32  C29 BAX A1201       2.826   3.812   7.463  1.00 29.38     0.267 C 
HETATM   33  N30 BAX A1201       3.089   3.805   8.783  1.00 37.04    -0.360 N 
HETATM   34  C31 BAX A1201       2.235   4.505   9.726  1.00 38.90     0.149 C 
HETATM   35  H30 BAX A1201       3.904   3.299   9.127  1.00  0.00     0.162 HD
HETATM   36  O32 BAX A1201       1.876   4.406   6.979  1.00 36.85    -0.266 OA
ENDBRANCH  29  32
ENDBRANCH  24  25
ENDBRANCH  21  24
ENDBRANCH  14  18
ENDBRANCH   2  12
TORSDOF 6
ENDMDL
MODEL 4
REMARK VINA RESULT:     -10.7      7.328     11.011
REMARK  6 active torsions:
REMARK  status: ('A' for Active; 'I' for Inactive)
REMARK    1  A    between atoms: C2_2  and  N12_12 
REMARK       I    between atoms: C13_13  and  N12_12 
REMARK       I    between atoms: C13_13  and  N14_14 
REMARK    2  A    between atoms: C16_18  and  N14_14 
REMARK    3  A    between atoms: C19_21  and  O22_24 
REMARK    4  A    between atoms: O22_24  and  C23_25 
REMARK    5  A    between atoms: C27_29  and  C29_32 
REMARK       I    between atoms: N30_33  and  C29_32 
REMARK    6  A    between atoms: C6_6  and  C7_8 
ROOT
HETATM    1  C1  BAX A1201       0.985   5.983   9.627  1.00 31.56     0.047 A 
HETATM    2  C2  BAX A1201       1.482   5.893   8.334  1.00 31.50     0.037 A 
HETATM    3  C3  BAX A1201       2.032   7.054   7.761  1.00 37.94     0.031 A 
HETATM    4  C4  BAX A1201       2.077   8.288   8.419  1.00 35.50     0.027 A 
HETATM    5  C5  BAX A1201       1.568   8.366   9.728  1.00 33.51     0.049 A 
HETATM    6  C6  BAX A1201       1.012   7.156  10.340  1.00 27.50     0.071 A 
HETATM    7 CL11 BAX A1201       1.576   9.892  10.638  1.00 50.98    -0.083 Cl
ENDROOT
BRANCH   6   8
HETATM    8  C7  BAX A1201       0.443   7.194  11.750  1.00 36.87     0.419 C 
HETATM    9  F8  BAX A1201       1.313   7.645  12.602  1.00 39.65    -0.166 F 
HETATM   10  F9  BAX A1201      -0.615   7.913  11.850  1.00 37.84    -0.166 F 
HETATM   11  F10 BAX A1201       0.065   5.998  12.072  1.00 36.35    -0.166 F 
ENDBRANCH   6   8
BRANCH   2  12
HETATM   12  N12 BAX A1201       1.399   4.737   7.563  1.00 26.26    -0.309 N 
HETATM   13  C13 BAX A1201       2.210   3.646   7.645  1.00 27.98     0.325 C 
HETATM   14  N14 BAX A1201       1.915   2.676   6.759  1.00 25.84    -0.309 N 
HETATM   15  O15 BAX A1201       3.118   3.595   8.443  1.00 28.48    -0.247 OA
HETATM   16  H14 BAX A1201       1.280   2.915   5.996  1.00  0.00     0.170 HD
HETATM   17  H12 BAX A1201       0.655   4.704   6.866  1.00  0.00     0.170 HD
BRANCH  14  18
HETATM   18  C16 BAX A1201       2.395   1.399   6.800  1.00 26.24     0.036 A 
HETATM   19  C21 BAX A1201       3.687   1.058   6.487  1.00 29.02     0.032 A 
HETATM   20  C20 BAX A1201       4.155  -0.246   6.404  1.00 31.31     0.039 A 
HETATM   21  C19 BAX A1201       3.281  -1.259   6.666  1.00 29.38     0.076 A 
HETATM   22  C18 BAX A1201       1.984  -0.952   6.983  1.00 29.57     0.039 A 
HETATM   23  C17 BAX A1201       1.523   0.359   7.054  1.00 29.00     0.032 A 
BRANCH  21  24
HETATM   24  O22 BAX A1201       3.733  -2.566   6.731  1.00 34.12    -0.311 OA
BRANCH  24  25
HETATM   25  C23 BAX A1201       4.436  -3.034   7.824  1.00 33.06     0.079 A 
HETATM   26  C24 BAX A1201       5.813  -2.883   8.037  1.00 28.70     0.054 A 
HETATM   27  C25 BAX A1201       6.317  -3.400   9.236  1.00 29.56     0.091 A 
HETATM   28  N26 BAX A1201       5.536  -4.068  10.107  1.00 25.85    -0.361 N 
HETATM   29  C27 BAX A1201       4.224  -4.277   9.875  1.00 30.06     0.103 A 
HETATM   30  H26 BAX A1201       5.950  -4.427  10.968  1.00  0.00     0.165 HD
HETATM   31  C28 BAX A1201       3.628  -3.750   8.710  1.00 28.65     0.072 A 
BRANCH  29  32
HETATM   32  C29 BAX A1201       3.416  -5.035  10.863  1.00 29.38     0.267 C 
HETATM   33  N30 BAX A1201       2.638  -6.044  10.431  1.00 37.04    -0.360 N 
HETATM   34  C31 BAX A1201       1.803  -6.800  11.348  1.00 38.90     0.149 C 
HETATM   35  H30 BAX A1201       2.634  -6.283   9.440  1.00  0.00     0.162 HD
HETATM   36  O32 BAX A1201       3.480  -4.702  12.035  1.00 36.85    -0.266 OA
ENDBRANCH  29  32
ENDBRANCH  24  25
ENDBRANCH  21  24
ENDBRANCH  14  18
ENDBRANCH   2  12
TORSDOF 6
ENDMDL
MODEL 5
REMARK VINA RESULT:     -10.7      5.999     12.533
REMARK  6 active torsions:
REMARK  status: ('A' for Active; 'I' for Inactive)
REMARK    1  A    between atoms: C2_2  and  N12_12 
REMARK       I    between atoms: C13_13  and  N12_12 
REMARK       I    between atoms: C13_13  and  N14_14 
REMARK    2  A    between atoms: C16_18  and  N14_14 
REMARK    3  A    between atoms: C19_21  and  O22_24 
REMARK    4  A    between atoms: O22_24  and  C23_25 
REMARK    5  A    between atoms: C27_29  and  C29_32 
REMARK       I    between atoms: N30_33  and  C29_32 
REMARK    6  A    between atoms: C6_6  and  C7_8 
ROOT
HETATM    1  C1  BAX A1201       2.579  -5.142  12.554  1.00 31.56     0.047 A 
HETATM    2  C2  BAX A1201       3.006  -5.473  11.276  1.00 31.50     0.037 A 
HETATM    3  C3  BAX A1201       2.413  -6.585  10.653  1.00 37.94     0.031 A 
HETATM    4  C4  BAX A1201       1.439  -7.380  11.267  1.00 35.50     0.027 A 
HETATM    5  C5  BAX A1201       1.015  -7.035  12.563  1.00 33.51     0.049 A 
HETATM    6  C6  BAX A1201       1.614  -5.865  13.211  1.00 27.50     0.071 A 
HETATM    7 CL11 BAX A1201      -0.210  -7.991  13.425  1.00 50.98    -0.083 Cl
ENDROOT
BRANCH   6   8
HETATM    8  C7  BAX A1201       1.194  -5.459  14.616  1.00 36.87     0.419 C 
HETATM    9  F8  BAX A1201       1.477  -6.385  15.482  1.00 39.65    -0.166 F 
HETATM   10  F9  BAX A1201       1.741  -4.369  15.013  1.00 37.84    -0.166 F 
HETATM   11  F10 BAX A1201      -0.077  -5.212  14.608  1.00 36.35    -0.166 F 
ENDBRANCH   6   8
BRANCH   2  12
HETATM   12  N12 BAX A1201       4.033  -4.802  10.617  1.00 26.26    -0.309 N 
HETATM   13  C13 BAX A1201       3.895  -3.830   9.674  1.00 27.98     0.325 C 
HETATM   14  N14 BAX A1201       5.062  -3.369   9.186  1.00 25.84    -0.309 N 
HETATM   15  O15 BAX A1201       2.803  -3.451   9.315  1.00 28.48    -0.247 OA
HETATM   16  H14 BAX A1201       5.903  -3.908   9.394  1.00  0.00     0.170 HD
HETATM   17  H12 BAX A1201       4.986  -5.066  10.868  1.00  0.00     0.170 HD
BRANCH  14  18
HETATM   18  C16 BAX A1201       5.212  -2.238   8.437  1.00 26.24     0.036 A 
HETATM   19  C21 BAX A1201       5.812  -1.091   8.894  1.00 29.02     0.032 A 
HETATM   20  C20 BAX A1201       5.861   0.102   8.188  1.00 31.31     0.039 A 
HETATM   21  C19 BAX A1201       5.290   0.139   6.951  1.00 29.38     0.076 A 
HETATM   22  C18 BAX A1201       4.684  -0.989   6.464  1.00 29.57     0.039 A 
HETATM   23  C17 BAX A1201       4.633  -2.179   7.185  1.00 29.00     0.032 A 
BRANCH  21  24
HETATM   24  O22 BAX A1201       5.434   1.263   6.154  1.00 34.12    -0.311 OA
BRANCH  24  25
HETATM   25  C23 BAX A1201       4.460   2.241   6.102  1.00 33.06     0.079 A 
HETATM   26  C24 BAX A1201       4.494   3.464   6.784  1.00 28.70     0.054 A 
HETATM   27  C25 BAX A1201       3.419   4.332   6.559  1.00 29.56     0.091 A 
HETATM   28  N26 BAX A1201       2.373   3.983   5.783  1.00 25.85    -0.361 N 
HETATM   29  C27 BAX A1201       2.302   2.779   5.179  1.00 30.06     0.103 A 
HETATM   30  H26 BAX A1201       1.613   4.650   5.648  1.00  0.00     0.165 HD
HETATM   31  C28 BAX A1201       3.366   1.863   5.320  1.00 28.65     0.072 A 
BRANCH  29  32
HETATM   32  C29 BAX A1201       1.118   2.443   4.350  1.00 29.38     0.267 C 
HETATM   33  N30 BAX A1201       0.640   1.185   4.376  1.00 37.04    -0.360 N 
HETATM   34  C31 BAX A1201      -0.496   0.792   3.562  1.00 38.90     0.149 C 
HETATM   35  H30 BAX A1201       1.084   0.495   4.981  1.00  0.00     0.162 HD
HETATM   36  O32 BAX A1201       0.630   3.323   3.661  1.00 36.85    -0.266 OA
ENDBRANCH  29  32
ENDBRANCH  24  25
ENDBRANCH  21  24
ENDBRANCH  14  18
ENDBRANCH   2  12
TORSDOF 6
ENDMDL
MODEL 6
REMARK VINA RESULT:     -10.5      5.694     12.683
REMARK  6 active torsions:
REMARK  status: ('A' for Active; 'I' for Inactive)
REMARK    1  A    between atoms: C2_2  and  N12_12 
REMARK       I    between atoms: C13_13  and  N12_12 
REMARK       I    between atoms: C13_13  and  N14_14 
REMARK    2  A    between atoms: C16_18  and  N14_14 
REMARK    3  A    between atoms: C19_21  and  O22_24 
REMARK    4  A    between atoms: O22_24  and  C23_25 
REMARK    5  A    between atoms: C27_29  and  C29_32 
REMARK       I    between atoms: N30_33  and  C29_32 
REMARK    6  A    between atoms: C6_6  and  C7_8 
ROOT
HETATM    1  C1  BAX A1201       2.659  -6.296  12.884  1.00 31.56     0.047 A 
HETATM    2  C2  BAX A1201       2.789  -6.314  11.503  1.00 31.50     0.037 A 
HETATM    3  C3  BAX A1201       1.780  -6.949  10.757  1.00 37.94     0.031 A 
HETATM    4  C4  BAX A1201       0.675  -7.578  11.340  1.00 35.50     0.027 A 
HETATM    5  C5  BAX A1201       0.555  -7.553  12.742  1.00 33.51     0.049 A 
HETATM    6  C6  BAX A1201       1.592  -6.876  13.525  1.00 27.50     0.071 A 
HETATM    7 CL11 BAX A1201      -0.810  -8.333  13.571  1.00 50.98    -0.083 Cl
ENDROOT
BRANCH   6   8
HETATM    8  C7  BAX A1201       1.510  -6.832  15.043  1.00 36.87     0.419 C 
HETATM    9  F8  BAX A1201       1.669  -8.012  15.562  1.00 39.65    -0.166 F 
HETATM   10  F9  BAX A1201       2.376  -6.049  15.575  1.00 37.84    -0.166 F 
HETATM   11  F10 BAX A1201       0.361  -6.336  15.378  1.00 36.35    -0.166 F 
ENDBRANCH   6   8
BRANCH   2  12
HETATM   12  N12 BAX A1201       3.896  -5.799  10.834  1.00 26.26    -0.309 N 
HETATM   13  C13 BAX A1201       3.973  -4.599  10.194  1.00 27.98     0.325 C 
HETATM   14  N14 BAX A1201       5.164  -4.365   9.611  1.00 25.84    -0.309 N 
HETATM   15  O15 BAX A1201       3.029  -3.844  10.157  1.00 28.48    -0.247 OA
HETATM   16  H14 BAX A1201       5.803  -5.154   9.515  1.00  0.00     0.170 HD
HETATM   17  H12 BAX A1201       4.735  -6.380  10.823  1.00  0.00     0.170 HD
BRANCH  14  18
HETATM   18  C16 BAX A1201       5.584  -3.156   9.136  1.00 26.24     0.036 A 
HETATM   19  C21 BAX A1201       6.100  -2.161   9.928  1.00 29.02     0.032 A 
HETATM   20  C20 BAX A1201       6.416  -0.886   9.480  1.00 31.31     0.039 A 
HETATM   21  C19 BAX A1201       6.217  -0.604   8.161  1.00 29.38     0.076 A 
HETATM   22  C18 BAX A1201       5.705  -1.575   7.342  1.00 29.57     0.039 A 
HETATM   23  C17 BAX A1201       5.383  -2.848   7.805  1.00 29.00     0.032 A 
BRANCH  21  24
HETATM   24  O22 BAX A1201       6.644   0.606   7.639  1.00 34.12    -0.311 OA
BRANCH  24  25
HETATM   25  C23 BAX A1201       6.465   0.922   6.307  1.00 33.06     0.079 A 
HETATM   26  C24 BAX A1201       7.398   0.711   5.283  1.00 28.70     0.054 A 
HETATM   27  C25 BAX A1201       6.996   1.068   3.991  1.00 29.56     0.091 A 
HETATM   28  N26 BAX A1201       5.803   1.648   3.752  1.00 25.85    -0.361 N 
HETATM   29  C27 BAX A1201       4.929   1.917   4.742  1.00 30.06     0.103 A 
HETATM   30  H26 BAX A1201       5.555   1.890   2.793  1.00  0.00     0.165 HD
HETATM   31  C28 BAX A1201       5.239   1.549   6.068  1.00 28.65     0.072 A 
BRANCH  29  32
HETATM   32  C29 BAX A1201       3.636   2.573   4.422  1.00 29.38     0.267 C 
HETATM   33  N30 BAX A1201       3.633   3.646   3.610  1.00 37.04    -0.360 N 
HETATM   34  C31 BAX A1201       2.402   4.346   3.287  1.00 38.90     0.149 C 
HETATM   35  H30 BAX A1201       4.513   3.975   3.214  1.00  0.00     0.162 HD
HETATM   36  O32 BAX A1201       2.621   2.118   4.922  1.00 36.85    -0.266 OA
ENDBRANCH  29  32
ENDBRANCH  24  25
ENDBRANCH  21  24
ENDBRANCH  14  18
ENDBRANCH   2  12
TORSDOF 6
ENDMDL
MODEL 7
REMARK VINA RESULT:      -9.9      7.439     11.101
REMARK  6 active torsions:
REMARK  status: ('A' for Active; 'I' for Inactive)
REMARK    1  A    between atoms: C2_2  and  N12_12 
REMARK       I    between atoms: C13_13  and  N12_12 
REMARK       I    between atoms: C13_13  and  N14_14 
REMARK    2  A    between atoms: C16_18  and  N14_14 
REMARK    3  A    between atoms: C19_21  and  O22_24 
REMARK    4  A    between atoms: O22_24  and  C23_25 
REMARK    5  A    between atoms: C27_29  and  C29_32 
REMARK       I    between atoms: N30_33  and  C29_32 
REMARK    6  A    between atoms: C6_6  and  C7_8 
ROOT
HETATM    1  C1  BAX A1201       1.356   6.683   8.434  1.00 31.56     0.047 A 
HETATM    2  C2  BAX A1201       0.536   5.592   8.186  1.00 31.50     0.037 A 
HETATM    3  C3  BAX A1201      -0.656   5.486   8.924  1.00 37.94     0.031 A 
HETATM    4  C4  BAX A1201      -1.037   6.408   9.904  1.00 35.50     0.027 A 
HETATM    5  C5  BAX A1201      -0.197   7.510  10.147  1.00 33.51     0.049 A 
HETATM    6  C6  BAX A1201       1.038   7.638   9.368  1.00 27.50     0.071 A 
HETATM    7 CL11 BAX A1201      -0.594   8.728  11.378  1.00 50.98    -0.083 Cl
ENDROOT
BRANCH   6   8
HETATM    8  C7  BAX A1201       1.983   8.807   9.602  1.00 36.87     0.419 C 
HETATM    9  F8  BAX A1201       2.381   8.856  10.837  1.00 39.65    -0.166 F 
HETATM   10  F9  BAX A1201       3.024   8.775   8.853  1.00 37.84    -0.166 F 
HETATM   11  F10 BAX A1201       1.370   9.901   9.276  1.00 36.35    -0.166 F 
ENDBRANCH   6   8
BRANCH   2  12
HETATM   12  N12 BAX A1201       0.871   4.572   7.299  1.00 26.26    -0.309 N 
HETATM   13  C13 BAX A1201       1.680   3.506   7.555  1.00 27.98     0.325 C 
HETATM   14  N14 BAX A1201       1.850   2.682   6.504  1.00 25.84    -0.309 N 
HETATM   15  O15 BAX A1201       2.200   3.356   8.637  1.00 28.48    -0.247 OA
HETATM   16  H14 BAX A1201       1.550   3.021   5.589  1.00  0.00     0.170 HD
HETATM   17  H12 BAX A1201       0.469   4.628   6.363  1.00  0.00     0.170 HD
BRANCH  14  18
HETATM   18  C16 BAX A1201       2.390   1.430   6.563  1.00 26.24     0.036 A 
HETATM   19  C21 BAX A1201       1.647   0.277   6.582  1.00 29.02     0.032 A 
HETATM   20  C20 BAX A1201       2.175  -0.993   6.766  1.00 31.31     0.039 A 
HETATM   21  C19 BAX A1201       3.525  -1.109   6.923  1.00 29.38     0.076 A 
HETATM   22  C18 BAX A1201       4.296   0.023   6.909  1.00 29.57     0.039 A 
HETATM   23  C17 BAX A1201       3.754   1.293   6.732  1.00 29.00     0.032 A 
BRANCH  21  24
HETATM   24  O22 BAX A1201       4.112  -2.362   6.972  1.00 34.12    -0.311 OA
BRANCH  24  25
HETATM   25  C23 BAX A1201       4.620  -2.877   8.148  1.00 33.06     0.079 A 
HETATM   26  C24 BAX A1201       5.885  -2.599   8.683  1.00 28.70     0.054 A 
HETATM   27  C25 BAX A1201       6.186  -3.198   9.912  1.00 29.56     0.091 A 
HETATM   28  N26 BAX A1201       5.335  -4.050  10.515  1.00 25.85    -0.361 N 
HETATM   29  C27 BAX A1201       4.145  -4.376   9.971  1.00 30.06     0.103 A 
HETATM   30  H26 BAX A1201       5.599  -4.461  11.411  1.00  0.00     0.165 HD
HETATM   31  C28 BAX A1201       3.747  -3.783   8.755  1.00 28.65     0.072 A 
BRANCH  29  32
HETATM   32  C29 BAX A1201       3.255  -5.335  10.673  1.00 29.38     0.267 C 
HETATM   33  N30 BAX A1201       2.252  -4.857  11.432  1.00 37.04    -0.360 N 
HETATM   34  C31 BAX A1201       1.369  -5.747  12.165  1.00 38.90     0.149 C 
HETATM   35  H30 BAX A1201       2.108  -3.849  11.493  1.00  0.00     0.162 HD
HETATM   36  O32 BAX A1201       3.479  -6.527  10.544  1.00 36.85    -0.266 OA
ENDBRANCH  29  32
ENDBRANCH  24  25
ENDBRANCH  21  24
ENDBRANCH  14  18
ENDBRANCH   2  12
TORSDOF 6
ENDMDL
