REMARK  6 active torsions:
REMARK  status: ('A' for Active; 'I' for Inactive)
REMARK    1  A    between atoms: C2_2  and  N12_12 
REMARK       I    between atoms: C13_13  and  N12_12 
REMARK       I    between atoms: C13_13  and  N14_14 
REMARK    2  A    between atoms: C16_18  and  N14_14 
REMARK    3  A    between atoms: C19_21  and  O22_24 
REMARK    4  A    between atoms: O22_24  and  C23_25 
REMARK    5  A    between atoms: C27_29  and  C29_32 
REMARK       I    between atoms: N30_33  and  C29_32 
REMARK    6  A    between atoms: C6_6  and  C7_8 
ROOT
HETATM    1  C1  BAX A1201      26.300  23.060  33.488  1.00 31.56     0.047 A 
HETATM    2  C2  BAX A1201      26.527  22.059  34.422  1.00 31.50     0.037 A 
HETATM    3  C3  BAX A1201      27.216  20.909  33.997  1.00 37.94     0.031 A 
HETATM    4  C4  BAX A1201      27.657  20.720  32.683  1.00 35.50     0.027 A 
HETATM    5  C5  BAX A1201      27.420  21.742  31.745  1.00 33.51     0.049 A 
HETATM    6  C6  BAX A1201      26.720  22.952  32.185  1.00 27.50     0.071 A 
HETATM    7 CL11 BAX A1201      27.936  21.587  30.052  1.00 50.98    -0.083 Cl
ENDROOT
BRANCH   6   8
HETATM    8  C7  BAX A1201      26.433  24.079  31.205  1.00 36.87     0.419 C 
HETATM    9  F8  BAX A1201      25.643  23.689  30.251  1.00 39.65    -0.166 F 
HETATM   10  F9  BAX A1201      25.904  25.109  31.758  1.00 37.84    -0.166 F 
HETATM   11  F10 BAX A1201      27.559  24.500  30.723  1.00 36.35    -0.166 F 
ENDBRANCH   6   8
BRANCH   2  12
HETATM   12  N12 BAX A1201      26.047  22.111  35.728  1.00 26.26    -0.309 N 
HETATM   13  C13 BAX A1201      25.001  22.857  36.180  1.00 27.98     0.325 C 
HETATM   14  N14 BAX A1201      24.768  22.731  37.500  1.00 25.84    -0.309 N 
HETATM   15  O15 BAX A1201      24.371  23.573  35.436  1.00 28.48    -0.247 OA
HETATM   16  H14 BAX A1201      25.490  22.280  38.063  1.00  0.00     0.170 HD
HETATM   17  H12 BAX A1201      26.528  21.531  36.416  1.00  0.00     0.170 HD
BRANCH  14  18
HETATM   18  C16 BAX A1201      23.644  23.158  38.146  1.00 26.24     0.036 A 
HETATM   19  C21 BAX A1201      22.427  23.325  37.534  1.00 29.02     0.032 A 
HETATM   20  C20 BAX A1201      21.310  23.874  38.147  1.00 31.31     0.039 A 
HETATM   21  C19 BAX A1201      21.419  24.260  39.450  1.00 29.38     0.076 A 
HETATM   22  C18 BAX A1201      22.620  24.106  40.091  1.00 29.57     0.039 A 
HETATM   23  C17 BAX A1201      23.737  23.562  39.463  1.00 29.00     0.032 A 
BRANCH  21  24
HETATM   24  O22 BAX A1201      20.298  24.684  40.144  1.00 34.12    -0.311 OA
BRANCH  24  25
HETATM   25  C23 BAX A1201      19.957  26.020  40.219  1.00 33.06     0.079 A 
HETATM   26  C24 BAX A1201      20.809  27.098  39.944  1.00 28.70     0.054 A 
HETATM   27  C25 BAX A1201      20.247  28.376  40.043  1.00 29.56     0.091 A 
HETATM   28  N26 BAX A1201      18.976  28.565  40.448  1.00 25.85    -0.361 N 
HETATM   29  C27 BAX A1201      18.172  27.535  40.781  1.00 30.06     0.103 A 
HETATM   30  H26 BAX A1201      18.611  29.516  40.504  1.00  0.00     0.165 HD
HETATM   31  C28 BAX A1201      18.648  26.212  40.667  1.00 28.65     0.072 A 
BRANCH  29  32
HETATM   32  C29 BAX A1201      16.785  27.804  41.237  1.00 29.38     0.267 C 
HETATM   33  N30 BAX A1201      16.382  29.080  41.380  1.00 37.04    -0.360 N 
HETATM   34  C31 BAX A1201      15.047  29.402  41.852  1.00 38.90     0.149 C 
HETATM   35  H30 BAX A1201      17.027  29.836  41.152  1.00  0.00     0.162 HD
HETATM   36  O32 BAX A1201      16.064  26.850  41.479  1.00 36.85    -0.266 OA
ENDBRANCH  29  32
ENDBRANCH  24  25
ENDBRANCH  21  24
ENDBRANCH  14  18
ENDBRANCH   2  12
TORSDOF 6
