MODEL 3
REMARK VINA RESULT:      -7.7      8.405     12.300
REMARK  6 active torsions:
REMARK  status: ('A' for Active; 'I' for Inactive)
REMARK    1  A    between atoms: O2_2  and  C3_3 
REMARK    2  A    between atoms: C9_10  and  O16_19 
REMARK    3  A    between atoms: C12_13  and  C13_14 
REMARK       I    between atoms: C13_14  and  N15_16 
REMARK    4  A    between atoms: O16_19  and  C17_20 
REMARK    5  A    between atoms: C20_23  and  N23_26 
REMARK       I    between atoms: N23_26  and  C24_28 
REMARK       I    between atoms: C24_28  and  N26_30 
REMARK    6  A    between atoms: N26_30  and  C27_32 
ROOT
HETATM    1  C1  LEV A1201      -0.194   3.351  27.971  1.00 23.32     0.210 C 
HETATM    2  O2  LEV A1201      -0.404   4.083  26.759  1.00 25.09    -0.355 OA
ENDROOT
BRANCH   2   3
HETATM    3  C3  LEV A1201      -1.180   3.573  25.750  1.00 25.89     0.086 A 
HETATM    4  C4  LEV A1201      -2.548   3.784  25.666  1.00 23.63     0.068 A 
HETATM    5  C5  LEV A1201      -3.310   3.258  24.611  1.00 22.30     0.047 A 
HETATM    6  N6  LEV A1201      -4.647   3.462  24.565  1.00 22.59    -0.365 N 
HETATM    7  C10 LEV A1201      -2.669   2.520  23.579  1.00 21.83     0.026 A 
HETATM    8  C7  LEV A1201      -5.355   2.913  23.601  1.00 21.94     0.091 A 
HETATM    9  H6  LEV A1201      -5.103   4.037  25.272  1.00  0.00     0.165 HD
HETATM   10  C8  LEV A1201      -4.798   2.205  22.538  1.00 21.46     0.055 A 
HETATM   11  C9  LEV A1201      -3.442   1.978  22.510  1.00 22.59     0.089 A 
HETATM   12  C11 LEV A1201      -1.287   2.297  23.667  1.00 22.43     0.036 A 
HETATM   13  C12 LEV A1201      -0.545   2.803  24.737  1.00 26.28     0.066 A 
BRANCH  11  14
HETATM   14  O16 LEV A1201      -2.777   1.327  21.515  1.00 24.05    -0.310 OA
BRANCH  14  15
HETATM   15  C17 LEV A1201      -2.580  -0.033  21.563  1.00 21.99     0.077 C 
HETATM   16  C22 LEV A1201      -1.683  -0.557  20.673  1.00 20.35     0.039 C 
HETATM   17  C21 LEV A1201      -1.476  -1.926  20.615  1.00 19.99     0.034 C 
HETATM   18  C20 LEV A1201      -2.118  -2.753  21.532  1.00 19.81     0.058 C 
HETATM   19  C19 LEV A1201      -3.101  -2.231  22.388  1.00 21.91     0.063 C 
HETATM   20 CL   LEV A1201      -3.965  -3.253  23.468  1.00 25.33    -0.082 Cl
HETATM   21  C18 LEV A1201      -3.303  -0.843  22.424  1.00 21.67     0.063 C 
BRANCH  18  22
HETATM   22  N23 LEV A1201      -1.972  -4.160  21.458  1.00 19.89    -0.307 N 
HETATM   23  C24 LEV A1201      -0.868  -4.844  21.903  1.00 19.83     0.321 C 
HETATM   24  N26 LEV A1201      -0.905  -6.167  21.567  1.00 21.77    -0.338 N 
HETATM   25  O25 LEV A1201       0.028  -4.311  22.528  1.00 19.47    -0.247 OA
HETATM   26  H26 LEV A1201      -1.757  -6.526  21.136  1.00  0.00     0.164 HD
HETATM   27  H23 LEV A1201      -2.736  -4.699  21.049  1.00  0.00     0.170 HD
BRANCH  24  28
HETATM   28  C27 LEV A1201       0.202  -7.103  21.786  1.00 27.30     0.086 A 
HETATM   29  C29 LEV A1201       0.732  -7.821  20.557  1.00 26.86     0.027 A 
HETATM   30  C28 LEV A1201      -0.044  -8.572  21.626  1.00 27.38     0.027 A 
ENDBRANCH  24  28
ENDBRANCH  18  22
ENDBRANCH  14  15
ENDBRANCH  11  14
BRANCH  13  31
HETATM   31  C13 LEV A1201       0.886   2.434  24.818  1.00 39.99     0.252 C 
HETATM   32  O14 LEV A1201       1.169   1.284  25.147  1.00 37.97    -0.268 OA
HETATM   33  N15 LEV A1201       1.887   3.334  24.765  1.00 33.25    -0.366 N 
HETATM   34 2H15 LEV A1201       1.652   4.288  24.492  1.00  0.00     0.159 HD
HETATM   35 1H15 LEV A1201       2.874   3.080  24.821  1.00  0.00     0.159 HD
ENDBRANCH  13  31
ENDBRANCH   2   3
TORSDOF 6
ENDMDL
