MODEL 2
REMARK VINA RESULT:      -8.2      3.141      6.144
REMARK  6 active torsions:
REMARK  status: ('A' for Active; 'I' for Inactive)
REMARK    1  A    between atoms: O2_2  and  C3_3 
REMARK    2  A    between atoms: C9_10  and  O16_19 
REMARK    3  A    between atoms: C12_13  and  C13_14 
REMARK       I    between atoms: C13_14  and  N15_16 
REMARK    4  A    between atoms: O16_19  and  C17_20 
REMARK    5  A    between atoms: C20_23  and  N23_26 
REMARK       I    between atoms: N23_26  and  C24_28 
REMARK       I    between atoms: C24_28  and  N26_30 
REMARK    6  A    between atoms: N26_30  and  C27_32 
ROOT
HETATM    1  C1  LEV A1201      -4.123 -10.908  27.175  1.00 23.32     0.210 C 
HETATM    2  O2  LEV A1201      -2.723 -10.610  27.209  1.00 25.09    -0.355 OA
ENDROOT
BRANCH   2   3
HETATM    3  C3  LEV A1201      -2.110  -9.975  26.160  1.00 25.89     0.086 A 
HETATM    4  C4  LEV A1201      -2.233  -8.616  25.921  1.00 23.63     0.068 A 
HETATM    5  C5  LEV A1201      -1.580  -7.995  24.844  1.00 22.30     0.047 A 
HETATM    6  N6  LEV A1201      -1.734  -6.670  24.621  1.00 22.59    -0.365 N 
HETATM    7  C10 LEV A1201      -0.739  -8.764  23.994  1.00 21.83     0.026 A 
HETATM    8  C7  LEV A1201      -1.162  -6.115  23.575  1.00 21.94     0.091 A 
HETATM    9  H6  LEV A1201      -2.291  -6.104  25.261  1.00  0.00     0.165 HD
HETATM   10  C8  LEV A1201      -0.299  -6.792  22.715  1.00 21.46     0.055 A 
HETATM   11  C9  LEV A1201      -0.080  -8.138  22.895  1.00 22.59     0.089 A 
HETATM   12  C11 LEV A1201      -0.620 -10.142  24.228  1.00 22.43     0.036 A 
HETATM   13  C12 LEV A1201      -1.298 -10.751  25.287  1.00 26.28     0.066 A 
BRANCH  11  14
HETATM   14  O16 LEV A1201       0.761  -8.902  22.142  1.00 24.05    -0.310 OA
BRANCH  14  15
HETATM   15  C17 LEV A1201       0.808  -8.769  20.774  1.00 21.99     0.077 C 
HETATM   16  C22 LEV A1201      -0.259  -8.154  20.179  1.00 20.35     0.039 C 
HETATM   17  C21 LEV A1201      -0.317  -8.039  18.799  1.00 19.99     0.034 C 
HETATM   18  C20 LEV A1201       0.761  -8.469  18.032  1.00 19.81     0.058 C 
HETATM   19  C19 LEV A1201       1.818  -9.175  18.631  1.00 21.91     0.063 C 
HETATM   20 CL   LEV A1201       3.117  -9.788  17.686  1.00 25.33    -0.082 Cl
HETATM   21  C18 LEV A1201       1.852  -9.290  20.028  1.00 21.67     0.063 C 
BRANCH  18  22
HETATM   22  N23 LEV A1201       0.705  -8.419  16.617  1.00 19.89    -0.307 N 
HETATM   23  C24 LEV A1201       1.211  -7.388  15.863  1.00 19.83     0.321 C 
HETATM   24  N26 LEV A1201       0.883  -7.501  14.543  1.00 21.77    -0.338 N 
HETATM   25  O25 LEV A1201       1.877  -6.489  16.340  1.00 19.47    -0.247 OA
HETATM   26  H26 LEV A1201       0.412  -8.353  14.239  1.00  0.00     0.164 HD
HETATM   27  H23 LEV A1201       0.262  -9.197  16.129  1.00  0.00     0.170 HD
BRANCH  24  28
HETATM   28  C27 LEV A1201       1.165  -6.474  13.535  1.00 27.30     0.086 A 
HETATM   29  C29 LEV A1201       1.085  -6.914  12.083  1.00 26.86     0.027 A 
HETATM   30  C28 LEV A1201       2.421  -6.575  12.724  1.00 27.38     0.027 A 
ENDBRANCH  24  28
ENDBRANCH  18  22
ENDBRANCH  14  15
ENDBRANCH  11  14
BRANCH  13  31
HETATM   31  C13 LEV A1201      -1.210 -12.224  25.405  1.00 39.99     0.252 C 
HETATM   32  O14 LEV A1201      -0.173 -12.706  25.856  1.00 37.97    -0.268 OA
HETATM   33  N15 LEV A1201      -2.102 -13.066  24.851  1.00 33.25    -0.366 N 
HETATM   34 2H15 LEV A1201      -2.963 -12.666  24.477  1.00  0.00     0.159 HD
HETATM   35 1H15 LEV A1201      -2.042 -14.082  24.932  1.00  0.00     0.159 HD
ENDBRANCH  13  31
ENDBRANCH   2   3
TORSDOF 6
ENDMDL
