MODEL 10
REMARK VINA RESULT:      -7.6      1.788      2.428
REMARK  6 active torsions:
REMARK  status: ('A' for Active; 'I' for Inactive)
REMARK    1  A    between atoms: C_3  and  S_21 
REMARK    2  A    between atoms: C_5  and  N_10 
REMARK    3  A    between atoms: C_9  and  N_10 
REMARK    4  A    between atoms: C_14  and  N_17 
REMARK    5  A    between atoms: N_17  and  C_18 
REMARK    6  A    between atoms: S_21  and  N_33 
ROOT
HETATM    1  C   UNK     0      -4.642  -1.208  22.435  0.00  0.00     0.040 A 
HETATM    2  C   UNK     0      -3.304  -0.713  21.855  0.00  0.00    -0.064 A 
HETATM    3  C   UNK     0      -1.975  -1.241  22.426  0.00  0.00     0.064 A 
HETATM    4  C   UNK     0      -1.984  -2.264  23.578  0.00  0.00     0.105 A 
HETATM    5  C   UNK     0      -3.321  -2.758  24.157  0.00  0.00     0.009 A 
HETATM    6  C   UNK     0      -4.651  -2.230  23.586  0.00  0.00     0.057 A 
HETATM    7  C   UNK     0      -3.295   0.310  20.704  0.00  0.00     0.044 C 
ENDROOT
BRANCH   3   8
HETATM    8  S   UNK     0      -0.636  -0.746  21.846  0.00  0.00     0.253 S 
HETATM    9  O   UNK     0       0.500  -0.871  20.815  0.00  0.00    -0.201 OA
HETATM   10  O   UNK     0      -0.681  -1.858  20.783  0.00  0.00    -0.201 OA
BRANCH   8  11
HETATM   11  N   UNK     0       0.075   0.482  22.489  0.00  0.00    -0.324 N 
HETATM   12  HN2 UNK     0       0.964   0.801  22.104  1.00  0.00     0.169 HD
HETATM   13  HN1 UNK     0      -0.354   0.952  23.286  1.00  0.00     0.169 HD
ENDBRANCH   8  11
ENDBRANCH   3   8
BRANCH   5  14
HETATM   14  N   UNK     0      -3.331  -3.781  25.309  0.00  0.00    -0.199 N 
HETATM   15  HN  UNK     0      -4.129  -3.830  25.941  1.00  0.00     0.183 HD
BRANCH  14  16
HETATM   16  C   UNK     0      -2.134  -4.730  25.505  0.00  0.00     0.679 A 
HETATM   17  N   UNK     0      -0.915  -4.272  26.328  0.00  0.00    -0.226 N 
HETATM   18  C   UNK     0       0.281  -5.220  26.525  0.00  0.00     0.145 A 
HETATM   19  HN  UNK     0      -0.901  -3.341  26.743  1.00  0.00     0.177 HD
HETATM   20  C   UNK     0       0.260  -6.628  25.899  0.00  0.00     0.097 A 
HETATM   21  C   UNK     0      -0.959  -7.085  25.076  0.00  0.00     0.100 A 
HETATM   22  N   UNK     0      -2.156  -6.136  24.880  0.00  0.00    -0.180 N 
HETATM   23  HN  UNK     0      -2.963  -6.440  24.335  1.00  0.00     0.185 HD
BRANCH  21  24
HETATM   24  N   UNK     0      -0.980  -8.497  24.449  0.00  0.00    -0.347 N 
HETATM   25  C   UNK     0      -1.626  -9.666  25.209  0.00  0.00     0.157 C 
BRANCH  24  26
HETATM   26  C   UNK     0      -0.362  -8.729  23.078  0.00  0.00    -0.004 A 
HETATM   27  C   UNK     0       0.740  -9.805  22.896  0.00  0.00     0.057 A 
HETATM   28  C   UNK     0       1.366 -10.039  21.509  0.00  0.00     0.048 A 
HETATM   29  C   UNK     0       0.897  -9.205  20.302  0.00  0.00    -0.010 A 
HETATM   30  C   UNK     0      -0.206  -8.129  20.483  0.00  0.00     0.039 A 
HETATM   31  C   UNK     0       1.325  -9.206  18.810  0.00  0.00     0.032 A 
HETATM   32  C   UNK     0      -0.831  -7.895  21.871  0.00  0.00     0.111 A 
HETATM   33  N   UNK     0      -0.459  -7.465  19.104  0.00  0.00    -0.302 N 
HETATM   34  N   UNK     0       0.486  -8.131  18.071  0.00  0.00    -0.300 N 
HETATM   35  HN  UNK     0      -1.130  -6.721  18.911  1.00  0.00     0.186 HD
HETATM   36  C   UNK     0       0.577  -7.786  16.577  0.00  0.00     0.177 C 
HETATM   37  C   UNK     0       2.379 -10.103  18.185  0.00  0.00     0.070 C 
ENDBRANCH  24  26
ENDBRANCH  21  24
ENDBRANCH  14  16
ENDBRANCH   5  14
TORSDOF 6
ENDMDL
