MODEL 8
REMARK VINA RESULT:      -7.9      3.949      9.252
REMARK  6 active torsions:
REMARK  status: ('A' for Active; 'I' for Inactive)
REMARK    1  A    between atoms: C_3  and  S_21 
REMARK    2  A    between atoms: C_5  and  N_10 
REMARK    3  A    between atoms: C_9  and  N_10 
REMARK    4  A    between atoms: C_14  and  N_17 
REMARK    5  A    between atoms: N_17  and  C_18 
REMARK    6  A    between atoms: S_21  and  N_33 
ROOT
HETATM    1  C   UNK     0       2.283  -9.925  19.300  0.00  0.00     0.040 A 
HETATM    2  C   UNK     0       2.227  -9.262  17.911  0.00  0.00    -0.064 A 
HETATM    3  C   UNK     0       1.115  -8.248  17.586  0.00  0.00     0.064 A 
HETATM    4  C   UNK     0       0.059  -7.895  18.651  0.00  0.00     0.105 A 
HETATM    5  C   UNK     0       0.116  -8.557  20.040  0.00  0.00     0.009 A 
HETATM    6  C   UNK     0       1.228  -9.572  20.364  0.00  0.00     0.057 A 
HETATM    7  C   UNK     0       3.282  -9.615  16.847  0.00  0.00     0.044 C 
ENDROOT
BRANCH   3   8
HETATM    8  S   UNK     0       1.059  -7.585  16.197  0.00  0.00     0.253 S 
HETATM    9  O   UNK     0       1.465  -6.448  15.242  0.00  0.00    -0.201 OA
HETATM   10  O   UNK     0       1.973  -6.452  16.695  0.00  0.00    -0.201 OA
BRANCH   8  11
HETATM   11  N   UNK     0       0.226  -8.250  15.060  0.00  0.00    -0.324 N 
HETATM   12  HN2 UNK     0       0.015  -7.713  14.219  1.00  0.00     0.169 HD
HETATM   13  HN1 UNK     0      -0.097  -9.211  15.168  1.00  0.00     0.169 HD
ENDBRANCH   8  11
ENDBRANCH   3   8
BRANCH   5  14
HETATM   14  N   UNK     0      -0.939  -8.205  21.104  0.00  0.00    -0.199 N 
HETATM   15  HN  UNK     0      -1.748  -8.811  21.242  1.00  0.00     0.183 HD
BRANCH  14  16
HETATM   16  C   UNK     0      -0.775  -6.936  21.962  0.00  0.00     0.679 A 
HETATM   17  N   UNK     0      -0.106  -7.024  23.346  0.00  0.00    -0.226 N 
HETATM   18  C   UNK     0       0.059  -5.756  24.204  0.00  0.00     0.145 A 
HETATM   19  HN  UNK     0       0.228  -7.922  23.695  1.00  0.00     0.177 HD
HETATM   20  C   UNK     0      -0.445  -4.399  23.677  0.00  0.00     0.097 A 
HETATM   21  C   UNK     0      -1.114  -4.311  22.293  0.00  0.00     0.100 A 
HETATM   22  N   UNK     0      -1.279  -5.580  21.435  0.00  0.00    -0.180 N 
HETATM   23  HN  UNK     0      -1.722  -5.522  20.518  1.00  0.00     0.185 HD
BRANCH  21  24
HETATM   24  N   UNK     0      -1.620  -2.951  21.765  0.00  0.00    -0.347 N 
HETATM   25  C   UNK     0      -2.624  -2.902  20.602  0.00  0.00     0.157 C 
BRANCH  24  26
HETATM   26  C   UNK     0      -1.124  -1.659  22.396  0.00  0.00    -0.004 A 
HETATM   27  C   UNK     0      -0.161  -0.731  21.610  0.00  0.00     0.057 A 
HETATM   28  C   UNK     0       0.341   0.578  22.249  0.00  0.00     0.048 A 
HETATM   29  C   UNK     0      -0.112   0.965  23.669  0.00  0.00    -0.010 A 
HETATM   30  C   UNK     0      -1.075   0.036  24.456  0.00  0.00     0.039 A 
HETATM   31  C   UNK     0       0.213   2.189  24.565  0.00  0.00     0.032 A 
HETATM   32  C   UNK     0      -1.577  -1.272  23.816  0.00  0.00     0.111 A 
HETATM   33  N   UNK     0      -1.345   0.687  25.838  0.00  0.00    -0.302 N 
HETATM   34  N   UNK     0      -0.550   2.017  25.905  0.00  0.00    -0.300 N 
HETATM   35  HN  UNK     0      -1.942   0.307  26.574  1.00  0.00     0.186 HD
HETATM   36  C   UNK     0      -0.522   2.993  27.091  0.00  0.00     0.177 C 
HETATM   37  C   UNK     0       1.117   3.351  24.195  0.00  0.00     0.070 C 
ENDBRANCH  24  26
ENDBRANCH  21  24
ENDBRANCH  14  16
ENDBRANCH   5  14
TORSDOF 6
ENDMDL
