MODEL 13
REMARK VINA RESULT:      -7.1      4.495      7.005
REMARK  6 active torsions:
REMARK  status: ('A' for Active; 'I' for Inactive)
REMARK    1  A    between atoms: C_3  and  S_21 
REMARK    2  A    between atoms: C_5  and  N_10 
REMARK    3  A    between atoms: C_9  and  N_10 
REMARK    4  A    between atoms: C_14  and  N_17 
REMARK    5  A    between atoms: N_17  and  C_18 
REMARK    6  A    between atoms: S_21  and  N_33 
ROOT
HETATM    1  C   UNK     0      -7.307   3.547  23.017  0.00  0.00     0.040 A 
HETATM    2  C   UNK     0      -8.315   2.386  22.949  0.00  0.00    -0.064 A 
HETATM    3  C   UNK     0      -7.893   1.034  22.342  0.00  0.00     0.064 A 
HETATM    4  C   UNK     0      -6.463   0.845  21.805  0.00  0.00     0.105 A 
HETATM    5  C   UNK     0      -5.455   2.006  21.874  0.00  0.00     0.009 A 
HETATM    6  C   UNK     0      -5.877   3.358  22.480  0.00  0.00     0.057 A 
HETATM    7  C   UNK     0      -9.745   2.575  23.486  0.00  0.00     0.044 C 
ENDROOT
BRANCH   3   8
HETATM    8  S   UNK     0      -8.902  -0.128  22.274  0.00  0.00     0.253 S 
HETATM    9  O   UNK     0      -9.504  -1.412  22.874  0.00  0.00    -0.201 OA
HETATM   10  O   UNK     0      -8.355  -0.686  23.600  0.00  0.00    -0.201 OA
BRANCH   8  11
HETATM   11  N   UNK     0      -9.890  -0.220  21.073  0.00  0.00    -0.324 N 
HETATM   12  HN2 UNK     0     -10.360   0.626  20.749  1.00  0.00     0.169 HD
HETATM   13  HN1 UNK     0     -10.057  -1.121  20.625  1.00  0.00     0.169 HD
ENDBRANCH   8  11
ENDBRANCH   3   8
BRANCH   5  14
HETATM   14  N   UNK     0      -4.024   1.817  21.336  0.00  0.00    -0.199 N 
HETATM   15  HN  UNK     0      -3.818   2.005  20.355  1.00  0.00     0.183 HD
BRANCH  14  16
HETATM   16  C   UNK     0      -2.902   1.343  22.280  0.00  0.00     0.679 A 
HETATM   17  N   UNK     0      -1.644   2.209  22.477  0.00  0.00    -0.226 N 
HETATM   18  C   UNK     0      -0.524   1.737  23.420  0.00  0.00     0.145 A 
HETATM   19  HN  UNK     0      -1.554   3.096  21.982  1.00  0.00     0.177 HD
HETATM   20  C   UNK     0      -0.660   0.397  24.167  0.00  0.00     0.097 A 
HETATM   21  C   UNK     0      -1.918  -0.469  23.971  0.00  0.00     0.100 A 
HETATM   22  N   UNK     0      -3.040   0.004  23.027  0.00  0.00    -0.180 N 
HETATM   23  HN  UNK     0      -3.873  -0.570  22.897  1.00  0.00     0.185 HD
BRANCH  21  24
HETATM   24  N   UNK     0      -2.055  -1.813  24.721  0.00  0.00    -0.347 N 
HETATM   25  C   UNK     0      -2.620  -1.842  26.150  0.00  0.00     0.157 C 
BRANCH  24  26
HETATM   26  C   UNK     0      -1.631  -3.108  24.044  0.00  0.00    -0.004 A 
HETATM   27  C   UNK     0      -1.435  -3.151  22.506  0.00  0.00     0.057 A 
HETATM   28  C   UNK     0      -1.006  -4.462  21.821  0.00  0.00     0.048 A 
HETATM   29  C   UNK     0      -0.771  -5.730  22.663  0.00  0.00    -0.010 A 
HETATM   30  C   UNK     0      -0.967  -5.687  24.202  0.00  0.00     0.039 A 
HETATM   31  C   UNK     0      -0.343  -7.171  22.275  0.00  0.00     0.032 A 
HETATM   32  C   UNK     0      -1.397  -4.376  24.886  0.00  0.00     0.111 A 
HETATM   33  N   UNK     0      -0.661  -7.100  24.765  0.00  0.00    -0.302 N 
HETATM   34  N   UNK     0      -0.275  -8.016  23.574  0.00  0.00    -0.300 N 
HETATM   35  HN  UNK     0      -0.704  -7.378  25.745  1.00  0.00     0.186 HD
HETATM   36  C   UNK     0       0.107  -9.501  23.665  0.00  0.00     0.177 C 
HETATM   37  C   UNK     0      -0.044  -7.664  20.871  0.00  0.00     0.070 C 
ENDBRANCH  24  26
ENDBRANCH  21  24
ENDBRANCH  14  16
ENDBRANCH   5  14
TORSDOF 6
ENDMDL
