MODEL 3
REMARK VINA RESULT:      -8.4      1.766      1.867
REMARK  6 active torsions:
REMARK  status: ('A' for Active; 'I' for Inactive)
REMARK    1  A    between atoms: C_3  and  S_21 
REMARK    2  A    between atoms: C_5  and  N_10 
REMARK    3  A    between atoms: C_9  and  N_10 
REMARK    4  A    between atoms: C_14  and  N_17 
REMARK    5  A    between atoms: N_17  and  C_18 
REMARK    6  A    between atoms: S_21  and  N_33 
ROOT
HETATM    1  C   UNK     0      -1.182  -2.591  21.428  0.00  0.00     0.040 A 
HETATM    2  C   UNK     0      -2.190  -1.589  20.835  0.00  0.00    -0.064 A 
HETATM    3  C   UNK     0      -3.521  -1.315  21.560  0.00  0.00     0.064 A 
HETATM    4  C   UNK     0      -3.844  -2.044  22.878  0.00  0.00     0.105 A 
HETATM    5  C   UNK     0      -2.836  -3.046  23.470  0.00  0.00     0.009 A 
HETATM    6  C   UNK     0      -1.505  -3.320  22.745  0.00  0.00     0.057 A 
HETATM    7  C   UNK     0      -1.868  -0.860  19.518  0.00  0.00     0.044 C 
ENDROOT
BRANCH   3   8
HETATM    8  S   UNK     0      -4.529  -0.313  20.968  0.00  0.00     0.253 S 
HETATM    9  O   UNK     0      -5.126   1.105  20.911  0.00  0.00    -0.201 OA
HETATM   10  O   UNK     0      -3.975   0.793  21.884  0.00  0.00    -0.201 OA
BRANCH   8  11
HETATM   11  N   UNK     0      -5.523  -0.782  19.864  0.00  0.00    -0.324 N 
HETATM   12  HN2 UNK     0      -6.454  -0.365  19.822  1.00  0.00     0.169 HD
HETATM   13  HN1 UNK     0      -5.235  -1.497  19.197  1.00  0.00     0.169 HD
ENDBRANCH   8  11
ENDBRANCH   3   8
BRANCH   5  14
HETATM   14  N   UNK     0      -3.159  -3.776  24.788  0.00  0.00    -0.199 N 
HETATM   15  HN  UNK     0      -4.019  -3.562  25.291  1.00  0.00     0.183 HD
BRANCH  14  16
HETATM   16  C   UNK     0      -2.181  -4.828  25.345  0.00  0.00     0.679 A 
HETATM   17  N   UNK     0      -1.468  -4.581  26.688  0.00  0.00    -0.226 N 
HETATM   18  C   UNK     0      -0.492  -5.632  27.245  0.00  0.00     0.145 A 
HETATM   19  HN  UNK     0      -1.643  -3.721  27.207  1.00  0.00     0.177 HD
HETATM   20  C   UNK     0      -0.228  -6.931  26.460  0.00  0.00     0.097 A 
HETATM   21  C   UNK     0      -0.941  -7.178  25.118  0.00  0.00     0.100 A 
HETATM   22  N   UNK     0      -1.918  -6.126  24.560  0.00  0.00    -0.180 N 
HETATM   23  HN  UNK     0      -2.391  -6.289  23.671  1.00  0.00     0.185 HD
BRANCH  21  24
HETATM   24  N   UNK     0      -0.676  -8.480  24.331  0.00  0.00    -0.347 N 
HETATM   25  C   UNK     0      -0.799  -9.842  25.034  0.00  0.00     0.157 C 
BRANCH  24  26
HETATM   26  C   UNK     0      -0.294  -8.416  22.860  0.00  0.00    -0.004 A 
HETATM   27  C   UNK     0      -1.004  -7.408  21.918  0.00  0.00     0.057 A 
HETATM   28  C   UNK     0      -0.617  -7.342  20.429  0.00  0.00     0.048 A 
HETATM   29  C   UNK     0       0.475  -8.278  19.875  0.00  0.00    -0.010 A 
HETATM   30  C   UNK     0       1.184  -9.286  20.817  0.00  0.00     0.039 A 
HETATM   31  C   UNK     0       1.073  -8.447  18.453  0.00  0.00     0.032 A 
HETATM   32  C   UNK     0       0.797  -9.351  22.306  0.00  0.00     0.111 A 
HETATM   33  N   UNK     0       2.221 -10.078  19.978  0.00  0.00    -0.302 N 
HETATM   34  N   UNK     0       2.152  -9.560  18.518  0.00  0.00    -0.300 N 
HETATM   35  HN  UNK     0       2.840 -10.811  20.326  1.00  0.00     0.186 HD
HETATM   36  C   UNK     0       3.003 -10.061  17.341  0.00  0.00     0.177 C 
HETATM   37  C   UNK     0       0.673  -7.662  17.217  0.00  0.00     0.070 C 
ENDBRANCH  24  26
ENDBRANCH  21  24
ENDBRANCH  14  16
ENDBRANCH   5  14
TORSDOF 6
ENDMDL
