MODEL 4
REMARK VINA RESULT:      -8.3      1.765      1.806
REMARK  6 active torsions:
REMARK  status: ('A' for Active; 'I' for Inactive)
REMARK    1  A    between atoms: C_3  and  S_21 
REMARK    2  A    between atoms: C_5  and  N_10 
REMARK    3  A    between atoms: C_9  and  N_10 
REMARK    4  A    between atoms: C_14  and  N_17 
REMARK    5  A    between atoms: N_17  and  C_18 
REMARK    6  A    between atoms: S_21  and  N_33 
ROOT
HETATM    1  C   UNK     0      -1.299  -2.541  21.518  0.00  0.00     0.040 A 
HETATM    2  C   UNK     0      -2.290  -1.544  20.889  0.00  0.00    -0.064 A 
HETATM    3  C   UNK     0      -3.656  -1.293  21.554  0.00  0.00     0.064 A 
HETATM    4  C   UNK     0      -4.031  -2.038  22.849  0.00  0.00     0.105 A 
HETATM    5  C   UNK     0      -3.040  -3.035  23.477  0.00  0.00     0.009 A 
HETATM    6  C   UNK     0      -1.674  -3.286  22.812  0.00  0.00     0.057 A 
HETATM    7  C   UNK     0      -1.915  -0.799  19.595  0.00  0.00     0.044 C 
ENDROOT
BRANCH   3   8
HETATM    8  S   UNK     0      -4.647  -0.295  20.925  0.00  0.00     0.253 S 
HETATM    9  O   UNK     0      -5.267   1.113  20.863  0.00  0.00    -0.201 OA
HETATM   10  O   UNK     0      -4.168   0.799  21.895  0.00  0.00    -0.201 OA
BRANCH   8  11
HETATM   11  N   UNK     0      -5.567  -0.758  19.755  0.00  0.00    -0.324 N 
HETATM   12  HN2 UNK     0      -6.438  -0.257  19.579  1.00  0.00     0.169 HD
HETATM   13  HN1 UNK     0      -5.289  -1.553  19.180  1.00  0.00     0.169 HD
ENDBRANCH   8  11
ENDBRANCH   3   8
BRANCH   5  14
HETATM   14  N   UNK     0      -3.415  -3.781  24.771  0.00  0.00    -0.199 N 
HETATM   15  HN  UNK     0      -3.631  -3.255  25.619  1.00  0.00     0.183 HD
BRANCH  14  16
HETATM   16  C   UNK     0      -3.465  -5.320  24.787  0.00  0.00     0.679 A 
HETATM   17  N   UNK     0      -4.752  -6.045  25.222  0.00  0.00    -0.226 N 
HETATM   18  C   UNK     0      -4.802  -7.583  25.238  0.00  0.00     0.145 A 
HETATM   19  HN  UNK     0      -5.572  -5.505  25.500  1.00  0.00     0.177 HD
HETATM   20  C   UNK     0      -3.565  -8.398  24.818  0.00  0.00     0.097 A 
HETATM   21  C   UNK     0      -2.277  -7.674  24.382  0.00  0.00     0.100 A 
HETATM   22  N   UNK     0      -2.228  -6.134  24.367  0.00  0.00    -0.180 N 
HETATM   23  HN  UNK     0      -1.375  -5.654  24.079  1.00  0.00     0.185 HD
BRANCH  21  24
HETATM   24  N   UNK     0      -1.036  -8.491  23.961  0.00  0.00    -0.347 N 
HETATM   25  C   UNK     0      -0.324  -9.389  24.985  0.00  0.00     0.157 C 
BRANCH  24  26
HETATM   26  C   UNK     0      -0.519  -8.407  22.533  0.00  0.00    -0.004 A 
HETATM   27  C   UNK     0      -1.099  -7.349  21.559  0.00  0.00     0.057 A 
HETATM   28  C   UNK     0      -0.576  -7.264  20.113  0.00  0.00     0.048 A 
HETATM   29  C   UNK     0       0.524  -8.229  19.634  0.00  0.00    -0.010 A 
HETATM   30  C   UNK     0       1.105  -9.288  20.609  0.00  0.00     0.039 A 
HETATM   31  C   UNK     0       1.243  -8.390  18.268  0.00  0.00     0.032 A 
HETATM   32  C   UNK     0       0.581  -9.373  22.055  0.00  0.00     0.111 A 
HETATM   33  N   UNK     0       2.183 -10.103  19.845  0.00  0.00    -0.302 N 
HETATM   34  N   UNK     0       2.268  -9.547  18.400  0.00  0.00    -0.300 N 
HETATM   35  HN  UNK     0       2.738 -10.869  20.227  1.00  0.00     0.186 HD
HETATM   36  C   UNK     0       3.203 -10.054  17.292  0.00  0.00     0.177 C 
HETATM   37  C   UNK     0       0.988  -7.559  17.023  0.00  0.00     0.070 C 
ENDBRANCH  24  26
ENDBRANCH  21  24
ENDBRANCH  14  16
ENDBRANCH   5  14
TORSDOF 6
ENDMDL
