MODEL 17
REMARK VINA RESULT:      -7.0      4.988      7.928
REMARK  6 active torsions:
REMARK  status: ('A' for Active; 'I' for Inactive)
REMARK    1  A    between atoms: C_3  and  S_21 
REMARK    2  A    between atoms: C_5  and  N_10 
REMARK    3  A    between atoms: C_9  and  N_10 
REMARK    4  A    between atoms: C_14  and  N_17 
REMARK    5  A    between atoms: N_17  and  C_18 
REMARK    6  A    between atoms: S_21  and  N_33 
ROOT
HETATM    1  C   UNK     0      -2.924  -1.442  19.998  0.00  0.00     0.040 A 
HETATM    2  C   UNK     0      -1.827  -0.886  20.924  0.00  0.00    -0.064 A 
HETATM    3  C   UNK     0      -2.099   0.370  21.774  0.00  0.00     0.064 A 
HETATM    4  C   UNK     0      -3.469   1.069  21.697  0.00  0.00     0.105 A 
HETATM    5  C   UNK     0      -4.566   0.513  20.771  0.00  0.00     0.009 A 
HETATM    6  C   UNK     0      -4.294  -0.742  19.921  0.00  0.00     0.057 A 
HETATM    7  C   UNK     0      -0.457  -1.585  21.001  0.00  0.00     0.044 C 
ENDROOT
BRANCH   3   8
HETATM    8  S   UNK     0      -1.001   0.925  22.700  0.00  0.00     0.253 S 
HETATM    9  O   UNK     0       0.138   1.925  22.971  0.00  0.00    -0.201 OA
HETATM   10  O   UNK     0      -0.623   1.968  21.633  0.00  0.00    -0.201 OA
BRANCH   8  11
HETATM   11  N   UNK     0      -0.783   0.287  24.105  0.00  0.00    -0.324 N 
HETATM   12  HN2 UNK     0      -1.540   0.316  24.788  1.00  0.00     0.169 HD
HETATM   13  HN1 UNK     0       0.111  -0.151  24.325  1.00  0.00     0.169 HD
ENDBRANCH   8  11
ENDBRANCH   3   8
BRANCH   5  14
HETATM   14  N   UNK     0      -5.936   1.213  20.694  0.00  0.00    -0.199 N 
HETATM   15  HN  UNK     0      -6.087   1.967  20.024  1.00  0.00     0.183 HD
BRANCH  14  16
HETATM   16  C   UNK     0      -7.079   0.773  21.628  0.00  0.00     0.679 A 
HETATM   17  N   UNK     0      -7.805   1.816  22.499  0.00  0.00    -0.226 N 
HETATM   18  C   UNK     0      -8.947   1.377  23.433  0.00  0.00     0.145 A 
HETATM   19  HN  UNK     0      -7.529   2.796  22.457  1.00  0.00     0.177 HD
HETATM   20  C   UNK     0      -9.364  -0.104  23.497  0.00  0.00     0.097 A 
HETATM   21  C   UNK     0      -8.638  -1.147  22.626  0.00  0.00     0.100 A 
HETATM   22  N   UNK     0      -7.495  -0.707  21.691  0.00  0.00    -0.180 N 
HETATM   23  HN  UNK     0      -7.014  -1.398  21.115  1.00  0.00     0.185 HD
BRANCH  21  24
HETATM   24  N   UNK     0      -9.056  -2.632  22.690  0.00  0.00    -0.347 N 
HETATM   25  C   UNK     0     -10.470  -3.052  22.255  0.00  0.00     0.157 C 
BRANCH  24  26
HETATM   26  C   UNK     0      -8.070  -3.679  23.184  0.00  0.00    -0.004 A 
HETATM   27  C   UNK     0      -8.204  -5.153  22.718  0.00  0.00     0.057 A 
HETATM   28  C   UNK     0      -7.205  -6.213  23.218  0.00  0.00     0.048 A 
HETATM   29  C   UNK     0      -6.072  -5.810  24.180  0.00  0.00    -0.010 A 
HETATM   30  C   UNK     0      -5.937  -4.335  24.647  0.00  0.00     0.039 A 
HETATM   31  C   UNK     0      -4.934  -6.629  24.846  0.00  0.00     0.032 A 
HETATM   32  C   UNK     0      -6.937  -3.276  24.146  0.00  0.00     0.111 A 
HETATM   33  N   UNK     0      -4.716  -4.244  25.599  0.00  0.00    -0.302 N 
HETATM   34  N   UNK     0      -4.097  -5.660  25.722  0.00  0.00    -0.300 N 
HETATM   35  HN  UNK     0      -4.380  -3.400  26.064  1.00  0.00     0.186 HD
HETATM   36  C   UNK     0      -2.869  -6.038  26.564  0.00  0.00     0.177 C 
HETATM   37  C   UNK     0      -4.684  -8.116  24.669  0.00  0.00     0.070 C 
ENDBRANCH  24  26
ENDBRANCH  21  24
ENDBRANCH  14  16
ENDBRANCH   5  14
TORSDOF 6
ENDMDL
