MODEL 16
REMARK VINA RESULT:      -7.1      4.705      7.919
REMARK  6 active torsions:
REMARK  status: ('A' for Active; 'I' for Inactive)
REMARK    1  A    between atoms: C_3  and  S_21 
REMARK    2  A    between atoms: C_5  and  N_10 
REMARK    3  A    between atoms: C_9  and  N_10 
REMARK    4  A    between atoms: C_14  and  N_17 
REMARK    5  A    between atoms: N_17  and  C_18 
REMARK    6  A    between atoms: S_21  and  N_33 
ROOT
HETATM    1  C   UNK     0       1.749  -9.729  19.968  0.00  0.00     0.040 A 
HETATM    2  C   UNK     0       1.846  -9.302  18.491  0.00  0.00    -0.064 A 
HETATM    3  C   UNK     0       0.936  -8.183  17.951  0.00  0.00     0.064 A 
HETATM    4  C   UNK     0      -0.071  -7.491  18.889  0.00  0.00     0.105 A 
HETATM    5  C   UNK     0      -0.168  -7.917  20.365  0.00  0.00     0.009 A 
HETATM    6  C   UNK     0       0.742  -9.036  20.904  0.00  0.00     0.057 A 
HETATM    7  C   UNK     0       2.853  -9.994  17.554  0.00  0.00     0.044 C 
ENDROOT
BRANCH   3   8
HETATM    8  S   UNK     0       1.033  -7.757  16.475  0.00  0.00     0.253 S 
HETATM    9  O   UNK     0       1.558  -6.794  15.394  0.00  0.00    -0.201 OA
HETATM   10  O   UNK     0       1.921  -6.564  16.873  0.00  0.00    -0.201 OA
BRANCH   8  11
HETATM   11  N   UNK     0       0.300  -8.592  15.382  0.00  0.00    -0.324 N 
HETATM   12  HN2 UNK     0       0.358  -9.610  15.412  1.00  0.00     0.169 HD
HETATM   13  HN1 UNK     0      -0.227  -8.114  14.652  1.00  0.00     0.169 HD
ENDBRANCH   8  11
ENDBRANCH   3   8
BRANCH   5  14
HETATM   14  N   UNK     0      -1.175  -7.225  21.302  0.00  0.00    -0.199 N 
HETATM   15  HN  UNK     0      -1.964  -6.710  20.912  1.00  0.00     0.183 HD
BRANCH  14  16
HETATM   16  C   UNK     0      -0.991  -7.310  22.829  0.00  0.00     0.679 A 
HETATM   17  N   UNK     0      -0.122  -6.268  23.559  0.00  0.00    -0.226 N 
HETATM   18  C   UNK     0       0.062  -6.353  25.085  0.00  0.00     0.145 A 
HETATM   19  HN  UNK     0       0.330  -5.522  23.031  1.00  0.00     0.177 HD
HETATM   20  C   UNK     0      -0.622  -7.480  25.882  0.00  0.00     0.097 A 
HETATM   21  C   UNK     0      -1.490  -8.521  25.152  0.00  0.00     0.100 A 
HETATM   22  N   UNK     0      -1.674  -8.436  23.625  0.00  0.00    -0.180 N 
HETATM   23  HN  UNK     0      -2.249  -9.126  23.142  1.00  0.00     0.185 HD
BRANCH  21  24
HETATM   24  N   UNK     0      -2.175  -9.651  25.952  0.00  0.00    -0.347 N 
HETATM   25  C   UNK     0      -3.554  -9.415  26.588  0.00  0.00     0.157 C 
BRANCH  24  26
HETATM   26  C   UNK     0      -1.486 -10.998  26.109  0.00  0.00    -0.004 A 
HETATM   27  C   UNK     0      -0.163 -11.103  26.912  0.00  0.00     0.057 A 
HETATM   28  C   UNK     0       0.535 -12.467  27.071  0.00  0.00     0.048 A 
HETATM   29  C   UNK     0      -0.080 -13.726  26.432  0.00  0.00    -0.010 A 
HETATM   30  C   UNK     0      -1.403 -13.621  25.628  0.00  0.00     0.039 A 
HETATM   31  C   UNK     0       0.375 -15.210  26.414  0.00  0.00     0.032 A 
HETATM   32  C   UNK     0      -2.100 -12.257  25.469  0.00  0.00     0.111 A 
HETATM   33  N   UNK     0      -1.765 -15.039  25.113  0.00  0.00    -0.302 N 
HETATM   34  N   UNK     0      -0.667 -16.020  25.600  0.00  0.00    -0.300 N 
HETATM   35  HN  UNK     0      -2.583 -15.283  24.554  1.00  0.00     0.186 HD
HETATM   36  C   UNK     0      -0.619 -17.530  25.323  0.00  0.00     0.177 C 
HETATM   37  C   UNK     0       1.621 -15.768  27.078  0.00  0.00     0.070 C 
ENDBRANCH  24  26
ENDBRANCH  21  24
ENDBRANCH  14  16
ENDBRANCH   5  14
TORSDOF 6
ENDMDL
