MODEL 1
REMARK VINA RESULT:      -8.6      0.000      0.000
REMARK  6 active torsions:
REMARK  status: ('A' for Active; 'I' for Inactive)
REMARK    1  A    between atoms: C_3  and  S_21 
REMARK    2  A    between atoms: C_5  and  N_10 
REMARK    3  A    between atoms: C_9  and  N_10 
REMARK    4  A    between atoms: C_14  and  N_17 
REMARK    5  A    between atoms: N_17  and  C_18 
REMARK    6  A    between atoms: S_21  and  N_33 
ROOT
HETATM    1  C   UNK     0      -2.363  -3.018  20.868  0.00  0.00     0.040 A 
HETATM    2  C   UNK     0      -2.166  -1.502  20.681  0.00  0.00    -0.064 A 
HETATM    3  C   UNK     0      -1.791  -0.620  21.887  0.00  0.00     0.064 A 
HETATM    4  C   UNK     0      -1.612  -1.254  23.279  0.00  0.00     0.105 A 
HETATM    5  C   UNK     0      -1.809  -2.769  23.465  0.00  0.00     0.009 A 
HETATM    6  C   UNK     0      -2.184  -3.651  22.260  0.00  0.00     0.057 A 
HETATM    7  C   UNK     0      -2.344  -0.868  19.290  0.00  0.00     0.044 C 
ENDROOT
BRANCH   3   8
HETATM    8  S   UNK     0      -1.594   0.896  21.700  0.00  0.00     0.253 S 
HETATM    9  O   UNK     0      -0.685   2.095  21.373  0.00  0.00    -0.201 OA
HETATM   10  O   UNK     0      -0.109   0.667  21.367  0.00  0.00    -0.201 OA
BRANCH   8  11
HETATM   11  N   UNK     0      -2.802   1.860  21.899  0.00  0.00    -0.324 N 
HETATM   12  HN2 UNK     0      -3.269   2.248  21.079  1.00  0.00     0.169 HD
HETATM   13  HN1 UNK     0      -3.112   2.091  22.842  1.00  0.00     0.169 HD
ENDBRANCH   8  11
ENDBRANCH   3   8
BRANCH   5  14
HETATM   14  N   UNK     0      -1.630  -3.404  24.857  0.00  0.00    -0.199 N 
HETATM   15  HN  UNK     0      -1.266  -2.845  25.629  1.00  0.00     0.183 HD
BRANCH  14  16
HETATM   16  C   UNK     0      -2.002  -4.881  25.084  0.00  0.00     0.679 A 
HETATM   17  N   UNK     0      -3.222  -5.244  25.952  0.00  0.00    -0.226 N 
HETATM   18  C   UNK     0      -3.593  -6.721  26.179  0.00  0.00     0.145 A 
HETATM   19  HN  UNK     0      -3.783  -4.506  26.376  1.00  0.00     0.177 HD
HETATM   20  C   UNK     0      -2.745  -7.835  25.538  0.00  0.00     0.097 A 
HETATM   21  C   UNK     0      -1.525  -7.473  24.671  0.00  0.00     0.100 A 
HETATM   22  N   UNK     0      -1.154  -5.995  24.444  0.00  0.00    -0.180 N 
HETATM   23  HN  UNK     0      -0.346  -5.755  23.870  1.00  0.00     0.185 HD
BRANCH  21  24
HETATM   24  N   UNK     0      -0.674  -8.591  24.029  0.00  0.00    -0.347 N 
HETATM   25  C   UNK     0      -0.231  -9.798  24.870  0.00  0.00     0.157 C 
BRANCH  24  26
HETATM   26  C   UNK     0      -0.276  -8.496  22.564  0.00  0.00    -0.004 A 
HETATM   27  C   UNK     0      -1.026  -7.524  21.617  0.00  0.00     0.057 A 
HETATM   28  C   UNK     0      -0.622  -7.429  20.134  0.00  0.00     0.048 A 
HETATM   29  C   UNK     0       0.527  -8.299  19.591  0.00  0.00    -0.010 A 
HETATM   30  C   UNK     0       1.278  -9.271  20.539  0.00  0.00     0.039 A 
HETATM   31  C   UNK     0       1.155  -8.427  18.177  0.00  0.00     0.032 A 
HETATM   32  C   UNK     0       0.874  -9.366  22.022  0.00  0.00     0.111 A 
HETATM   33  N   UNK     0       2.370 -10.000  19.711  0.00  0.00    -0.302 N 
HETATM   34  N   UNK     0       2.293  -9.478  18.252  0.00  0.00    -0.300 N 
HETATM   35  HN  UNK     0       3.023 -10.700  20.064  1.00  0.00     0.186 HD
HETATM   36  C   UNK     0       3.187  -9.924  17.086  0.00  0.00     0.177 C 
HETATM   37  C   UNK     0       0.729  -7.658  16.940  0.00  0.00     0.070 C 
ENDBRANCH  24  26
ENDBRANCH  21  24
ENDBRANCH  14  16
ENDBRANCH   5  14
TORSDOF 6
ENDMDL
