MODEL 5
REMARK VINA RESULT:      -8.3      2.089      2.461
REMARK  6 active torsions:
REMARK  status: ('A' for Active; 'I' for Inactive)
REMARK    1  A    between atoms: C_3  and  S_21 
REMARK    2  A    between atoms: C_5  and  N_10 
REMARK    3  A    between atoms: C_9  and  N_10 
REMARK    4  A    between atoms: C_14  and  N_17 
REMARK    5  A    between atoms: N_17  and  C_18 
REMARK    6  A    between atoms: S_21  and  N_33 
ROOT
HETATM    1  C   UNK     0      -1.700  -2.679  21.333  0.00  0.00     0.040 A 
HETATM    2  C   UNK     0      -2.476  -1.439  20.850  0.00  0.00    -0.064 A 
HETATM    3  C   UNK     0      -3.688  -0.929  21.650  0.00  0.00     0.064 A 
HETATM    4  C   UNK     0      -4.126  -1.659  22.934  0.00  0.00     0.105 A 
HETATM    5  C   UNK     0      -3.350  -2.898  23.417  0.00  0.00     0.009 A 
HETATM    6  C   UNK     0      -2.138  -3.408  22.617  0.00  0.00     0.057 A 
HETATM    7  C   UNK     0      -2.039  -0.711  19.566  0.00  0.00     0.044 C 
ENDROOT
BRANCH   3   8
HETATM    8  S   UNK     0      -4.464   0.311  21.167  0.00  0.00     0.253 S 
HETATM    9  O   UNK     0      -5.625   0.933  20.370  0.00  0.00    -0.201 OA
HETATM   10  O   UNK     0      -5.448  -0.596  20.406  0.00  0.00    -0.201 OA
BRANCH   8  11
HETATM   11  N   UNK     0      -3.987   1.731  21.593  0.00  0.00    -0.324 N 
HETATM   12  HN2 UNK     0      -3.119   2.102  21.206  1.00  0.00     0.169 HD
HETATM   13  HN1 UNK     0      -4.547   2.274  22.250  1.00  0.00     0.169 HD
ENDBRANCH   8  11
ENDBRANCH   3   8
BRANCH   5  14
HETATM   14  N   UNK     0      -3.788  -3.627  24.702  0.00  0.00    -0.199 N 
HETATM   15  HN  UNK     0      -4.053  -3.091  25.528  1.00  0.00     0.183 HD
BRANCH  14  16
HETATM   16  C   UNK     0      -3.825  -5.167  24.738  0.00  0.00     0.679 A 
HETATM   17  N   UNK     0      -5.174  -5.902  24.832  0.00  0.00    -0.226 N 
HETATM   18  C   UNK     0      -5.212  -7.441  24.868  0.00  0.00     0.145 A 
HETATM   19  HN  UNK     0      -6.044  -5.371  24.869  1.00  0.00     0.177 HD
HETATM   20  C   UNK     0      -3.899  -8.245  24.812  0.00  0.00     0.097 A 
HETATM   21  C   UNK     0      -2.549  -7.509  24.719  0.00  0.00     0.100 A 
HETATM   22  N   UNK     0      -2.512  -5.970  24.682  0.00  0.00    -0.180 N 
HETATM   23  HN  UNK     0      -1.618  -5.483  24.621  1.00  0.00     0.185 HD
BRANCH  21  24
HETATM   24  N   UNK     0      -1.233  -8.316  24.663  0.00  0.00    -0.347 N 
HETATM   25  C   UNK     0      -0.585  -8.820  25.962  0.00  0.00     0.157 C 
BRANCH  24  26
HETATM   26  C   UNK     0      -0.579  -8.610  23.322  0.00  0.00    -0.004 A 
HETATM   27  C   UNK     0       0.480  -9.738  23.206  0.00  0.00     0.057 A 
HETATM   28  C   UNK     0       1.142 -10.036  21.848  0.00  0.00     0.048 A 
HETATM   29  C   UNK     0       0.753  -9.214  20.604  0.00  0.00    -0.010 A 
HETATM   30  C   UNK     0      -0.306  -8.086  20.720  0.00  0.00     0.039 A 
HETATM   31  C   UNK     0       1.232  -9.273  19.129  0.00  0.00     0.032 A 
HETATM   32  C   UNK     0      -0.968  -7.788  22.078  0.00  0.00     0.111 A 
HETATM   33  N   UNK     0      -0.482  -7.448  19.317  0.00  0.00    -0.302 N 
HETATM   34  N   UNK     0       0.468  -8.181  18.334  0.00  0.00    -0.300 N 
HETATM   35  HN  UNK     0      -1.112  -6.680  19.081  1.00  0.00     0.186 HD
HETATM   36  C   UNK     0       0.626  -7.880  16.837  0.00  0.00     0.177 C 
HETATM   37  C   UNK     0       2.266 -10.231  18.564  0.00  0.00     0.070 C 
ENDBRANCH  24  26
ENDBRANCH  21  24
ENDBRANCH  14  16
ENDBRANCH   5  14
TORSDOF 6
ENDMDL
