MODEL 15
REMARK VINA RESULT:      -7.1      5.456      9.010
REMARK  6 active torsions:
REMARK  status: ('A' for Active; 'I' for Inactive)
REMARK    1  A    between atoms: C_3  and  S_21 
REMARK    2  A    between atoms: C_5  and  N_10 
REMARK    3  A    between atoms: C_9  and  N_10 
REMARK    4  A    between atoms: C_14  and  N_17 
REMARK    5  A    between atoms: N_17  and  C_18 
REMARK    6  A    between atoms: S_21  and  N_33 
ROOT
HETATM    1  C   UNK     0      -0.228  -8.529  13.885  0.00  0.00     0.040 A 
HETATM    2  C   UNK     0       0.473  -7.878  12.677  0.00  0.00    -0.064 A 
HETATM    3  C   UNK     0       1.687  -6.957  12.896  0.00  0.00     0.064 A 
HETATM    4  C   UNK     0       2.202  -6.687  14.322  0.00  0.00     0.105 A 
HETATM    5  C   UNK     0       1.501  -7.337  15.529  0.00  0.00     0.009 A 
HETATM    6  C   UNK     0       0.286  -8.258  15.310  0.00  0.00     0.057 A 
HETATM    7  C   UNK     0      -0.042  -8.149  11.252  0.00  0.00     0.044 C 
ENDROOT
BRANCH   3   8
HETATM    8  S   UNK     0       2.388  -6.307  11.688  0.00  0.00     0.253 S 
HETATM    9  O   UNK     0       3.410  -6.378  10.539  0.00  0.00    -0.201 OA
HETATM   10  O   UNK     0       3.223  -7.583  11.480  0.00  0.00    -0.201 OA
BRANCH   8  11
HETATM   11  N   UNK     0       2.005  -4.857  11.265  0.00  0.00    -0.324 N 
HETATM   12  HN2 UNK     0       2.292  -4.074  11.853  1.00  0.00     0.169 HD
HETATM   13  HN1 UNK     0       1.474  -4.706  10.408  1.00  0.00     0.169 HD
ENDBRANCH   8  11
ENDBRANCH   3   8
BRANCH   5  14
HETATM   14  N   UNK     0       2.015  -7.067  16.956  0.00  0.00    -0.199 N 
HETATM   15  HN  UNK     0       2.671  -6.304  17.125  1.00  0.00     0.183 HD
BRANCH  14  16
HETATM   16  C   UNK     0       1.540  -7.948  18.126  0.00  0.00     0.679 A 
HETATM   17  N   UNK     0       1.736  -9.475  18.070  0.00  0.00    -0.226 N 
HETATM   18  C   UNK     0       1.261 -10.356  19.239  0.00  0.00     0.145 A 
HETATM   19  HN  UNK     0       2.181  -9.902  17.258  1.00  0.00     0.177 HD
HETATM   20  C   UNK     0       0.589  -9.711  20.466  0.00  0.00     0.097 A 
HETATM   21  C   UNK     0       0.392  -8.184  20.522  0.00  0.00     0.100 A 
HETATM   22  N   UNK     0       0.868  -7.303  19.352  0.00  0.00    -0.180 N 
HETATM   23  HN  UNK     0       0.738  -6.292  19.389  1.00  0.00     0.185 HD
BRANCH  21  24
HETATM   24  N   UNK     0      -0.282  -7.537  21.752  0.00  0.00    -0.347 N 
HETATM   25  C   UNK     0      -0.569  -6.027  21.766  0.00  0.00     0.157 C 
BRANCH  24  26
HETATM   26  C   UNK     0      -0.661  -8.395  22.950  0.00  0.00    -0.004 A 
HETATM   27  C   UNK     0      -1.977  -8.112  23.721  0.00  0.00     0.057 A 
HETATM   28  C   UNK     0      -2.361  -8.980  24.934  0.00  0.00     0.048 A 
HETATM   29  C   UNK     0      -1.439 -10.131  25.380  0.00  0.00    -0.010 A 
HETATM   30  C   UNK     0      -0.123 -10.414  24.608  0.00  0.00     0.039 A 
HETATM   31  C   UNK     0      -1.548 -11.160  26.536  0.00  0.00     0.032 A 
HETATM   32  C   UNK     0       0.261  -9.545  23.396  0.00  0.00     0.111 A 
HETATM   33  N   UNK     0       0.581 -11.618  25.287  0.00  0.00    -0.302 N 
HETATM   34  N   UNK     0      -0.299 -12.079  26.479  0.00  0.00    -0.300 N 
HETATM   35  HN  UNK     0       1.468 -12.035  25.001  1.00  0.00     0.186 HD
HETATM   36  C   UNK     0       0.010 -13.241  27.434  0.00  0.00     0.177 C 
HETATM   37  C   UNK     0      -2.678 -11.251  27.546  0.00  0.00     0.070 C 
ENDBRANCH  24  26
ENDBRANCH  21  24
ENDBRANCH  14  16
ENDBRANCH   5  14
TORSDOF 6
ENDMDL
