MODEL 12
REMARK VINA RESULT:      -7.2      7.393     10.794
REMARK  6 active torsions:
REMARK  status: ('A' for Active; 'I' for Inactive)
REMARK    1  A    between atoms: C_3  and  S_21 
REMARK    2  A    between atoms: C_5  and  N_10 
REMARK    3  A    between atoms: C_9  and  N_10 
REMARK    4  A    between atoms: C_14  and  N_17 
REMARK    5  A    between atoms: N_17  and  C_18 
REMARK    6  A    between atoms: S_21  and  N_33 
ROOT
HETATM    1  C   UNK     0       1.601 -14.957  26.540  0.00  0.00     0.040 A 
HETATM    2  C   UNK     0       1.752 -16.396  26.012  0.00  0.00    -0.064 A 
HETATM    3  C   UNK     0       0.587 -17.068  25.263  0.00  0.00     0.064 A 
HETATM    4  C   UNK     0      -0.730 -16.300  25.041  0.00  0.00     0.105 A 
HETATM    5  C   UNK     0      -0.881 -14.862  25.569  0.00  0.00     0.009 A 
HETATM    6  C   UNK     0       0.285 -14.190  26.319  0.00  0.00     0.057 A 
HETATM    7  C   UNK     0       3.069 -17.163  26.234  0.00  0.00     0.044 C 
ENDROOT
BRANCH   3   8
HETATM    8  S   UNK     0       0.738 -18.506  24.734  0.00  0.00     0.253 S 
HETATM    9  O   UNK     0       1.021 -19.482  23.577  0.00  0.00    -0.201 OA
HETATM   10  O   UNK     0       1.043 -17.962  23.327  0.00  0.00    -0.201 OA
BRANCH   8  11
HETATM   11  N   UNK     0       0.546 -19.708  25.707  0.00  0.00    -0.324 N 
HETATM   12  HN2 UNK     0       1.132 -20.536  25.598  1.00  0.00     0.169 HD
HETATM   13  HN1 UNK     0      -0.160 -19.655  26.441  1.00  0.00     0.169 HD
ENDBRANCH   8  11
ENDBRANCH   3   8
BRANCH   5  14
HETATM   14  N   UNK     0      -2.198 -14.094  25.347  0.00  0.00    -0.199 N 
HETATM   15  HN  UNK     0      -2.999 -14.567  24.929  1.00  0.00     0.183 HD
BRANCH  14  16
HETATM   16  C   UNK     0      -2.305 -12.613  25.757  0.00  0.00     0.679 A 
HETATM   17  N   UNK     0      -3.439 -12.153  26.691  0.00  0.00    -0.226 N 
HETATM   18  C   UNK     0      -3.546 -10.673  27.100  0.00  0.00     0.145 A 
HETATM   19  HN  UNK     0      -4.120 -12.828  27.038  1.00  0.00     0.177 HD
HETATM   20  C   UNK     0      -2.519  -9.652  26.576  0.00  0.00     0.097 A 
HETATM   21  C   UNK     0      -1.384 -10.113  25.642  0.00  0.00     0.100 A 
HETATM   22  N   UNK     0      -1.277 -11.594  25.232  0.00  0.00    -0.180 N 
HETATM   23  HN  UNK     0      -0.526 -11.899  24.614  1.00  0.00     0.185 HD
BRANCH  21  24
HETATM   24  N   UNK     0      -0.353  -9.089  25.116  0.00  0.00    -0.347 N 
HETATM   25  C   UNK     0       0.484  -8.264  26.106  0.00  0.00     0.157 C 
BRANCH  24  26
HETATM   26  C   UNK     0      -0.168  -8.899  23.618  0.00  0.00    -0.004 A 
HETATM   27  C   UNK     0      -1.013  -7.842  22.860  0.00  0.00     0.057 A 
HETATM   28  C   UNK     0      -0.825  -7.649  21.344  0.00  0.00     0.048 A 
HETATM   29  C   UNK     0       0.203  -8.505  20.580  0.00  0.00    -0.010 A 
HETATM   30  C   UNK     0       1.049  -9.562  21.339  0.00  0.00     0.039 A 
HETATM   31  C   UNK     0       0.615  -8.545  19.084  0.00  0.00     0.032 A 
HETATM   32  C   UNK     0       0.860  -9.755  22.855  0.00  0.00     0.111 A 
HETATM   33  N   UNK     0       1.983 -10.256  20.312  0.00  0.00    -0.302 N 
HETATM   34  N   UNK     0       1.714  -9.627  18.919  0.00  0.00    -0.300 N 
HETATM   35  HN  UNK     0       2.655 -10.995  20.516  1.00  0.00     0.186 HD
HETATM   36  C   UNK     0       2.414 -10.009  17.607  0.00  0.00     0.177 C 
HETATM   37  C   UNK     0       0.041  -7.678  17.978  0.00  0.00     0.070 C 
ENDBRANCH  24  26
ENDBRANCH  21  24
ENDBRANCH  14  16
ENDBRANCH   5  14
TORSDOF 6
ENDMDL
