MODEL 2
REMARK VINA RESULT:      -8.5      1.955      2.485
REMARK  6 active torsions:
REMARK  status: ('A' for Active; 'I' for Inactive)
REMARK    1  A    between atoms: C_3  and  S_21 
REMARK    2  A    between atoms: C_5  and  N_10 
REMARK    3  A    between atoms: C_9  and  N_10 
REMARK    4  A    between atoms: C_14  and  N_17 
REMARK    5  A    between atoms: N_17  and  C_18 
REMARK    6  A    between atoms: S_21  and  N_33 
ROOT
HETATM    1  C   UNK     0      -1.239  -2.440  21.083  0.00  0.00     0.040 A 
HETATM    2  C   UNK     0      -2.303  -1.452  20.567  0.00  0.00    -0.064 A 
HETATM    3  C   UNK     0      -3.542  -1.138  21.426  0.00  0.00     0.064 A 
HETATM    4  C   UNK     0      -3.718  -1.811  22.800  0.00  0.00     0.105 A 
HETATM    5  C   UNK     0      -2.655  -2.799  23.315  0.00  0.00     0.009 A 
HETATM    6  C   UNK     0      -1.416  -3.113  22.456  0.00  0.00     0.057 A 
HETATM    7  C   UNK     0      -2.127  -0.779  19.194  0.00  0.00     0.044 C 
ENDROOT
BRANCH   3   8
HETATM    8  S   UNK     0      -4.605  -0.149  20.911  0.00  0.00     0.253 S 
HETATM    9  O   UNK     0      -5.213   1.265  20.884  0.00  0.00    -0.201 OA
HETATM   10  O   UNK     0      -3.976   0.974  21.754  0.00  0.00    -0.201 OA
BRANCH   8  11
HETATM   11  N   UNK     0      -5.693  -0.642  19.910  0.00  0.00    -0.324 N 
HETATM   12  HN2 UNK     0      -6.094   0.021  19.246  1.00  0.00     0.169 HD
HETATM   13  HN1 UNK     0      -5.991  -1.617  19.929  1.00  0.00     0.169 HD
ENDBRANCH   8  11
ENDBRANCH   3   8
BRANCH   5  14
HETATM   14  N   UNK     0      -2.830  -3.472  24.689  0.00  0.00    -0.199 N 
HETATM   15  HN  UNK     0      -3.607  -3.203  25.293  1.00  0.00     0.183 HD
BRANCH  14  16
HETATM   16  C   UNK     0      -1.834  -4.552  25.150  0.00  0.00     0.679 A 
HETATM   17  N   UNK     0      -0.791  -4.225  26.235  0.00  0.00    -0.226 N 
HETATM   18  C   UNK     0       0.205  -5.304  26.697  0.00  0.00     0.145 A 
HETATM   19  HN  UNK     0      -0.761  -3.293  26.648  1.00  0.00     0.177 HD
HETATM   20  C   UNK     0       0.158  -6.711  26.074  0.00  0.00     0.097 A 
HETATM   21  C   UNK     0      -0.884  -7.039  24.989  0.00  0.00     0.100 A 
HETATM   22  N   UNK     0      -1.881  -5.959  24.527  0.00  0.00    -0.180 N 
HETATM   23  HN  UNK     0      -2.571  -6.176  23.809  1.00  0.00     0.185 HD
BRANCH  21  24
HETATM   24  N   UNK     0      -0.930  -8.451  24.364  0.00  0.00    -0.347 N 
HETATM   25  C   UNK     0      -1.595  -9.608  25.127  0.00  0.00     0.157 C 
BRANCH  24  26
HETATM   26  C   UNK     0      -0.318  -8.696  22.993  0.00  0.00    -0.004 A 
HETATM   27  C   UNK     0       0.785  -9.771  22.817  0.00  0.00     0.057 A 
HETATM   28  C   UNK     0       1.405 -10.019  21.429  0.00  0.00     0.048 A 
HETATM   29  C   UNK     0       0.928  -9.199  20.215  0.00  0.00    -0.010 A 
HETATM   30  C   UNK     0      -0.176  -8.123  20.391  0.00  0.00     0.039 A 
HETATM   31  C   UNK     0       1.349  -9.215  18.722  0.00  0.00     0.032 A 
HETATM   32  C   UNK     0      -0.795  -7.876  21.780  0.00  0.00     0.111 A 
HETATM   33  N   UNK     0      -0.438  -7.474  19.007  0.00  0.00    -0.302 N 
HETATM   34  N   UNK     0       0.504  -8.149  17.975  0.00  0.00    -0.300 N 
HETATM   35  HN  UNK     0      -1.111  -6.734  18.809  1.00  0.00     0.186 HD
HETATM   36  C   UNK     0       0.587  -7.819  16.478  0.00  0.00     0.177 C 
HETATM   37  C   UNK     0       2.401 -10.116  18.101  0.00  0.00     0.070 C 
ENDBRANCH  24  26
ENDBRANCH  21  24
ENDBRANCH  14  16
ENDBRANCH   5  14
TORSDOF 6
ENDMDL
