MODEL 20
REMARK VINA RESULT:      -6.7      4.927      8.285
REMARK  6 active torsions:
REMARK  status: ('A' for Active; 'I' for Inactive)
REMARK    1  A    between atoms: C_3  and  S_21 
REMARK    2  A    between atoms: C_5  and  N_10 
REMARK    3  A    between atoms: C_9  and  N_10 
REMARK    4  A    between atoms: C_14  and  N_17 
REMARK    5  A    between atoms: N_17  and  C_18 
REMARK    6  A    between atoms: S_21  and  N_33 
ROOT
HETATM    1  C   UNK     0     -10.083  -1.350  22.938  0.00  0.00     0.040 A 
HETATM    2  C   UNK     0      -9.535  -2.780  23.102  0.00  0.00    -0.064 A 
HETATM    3  C   UNK     0      -8.110  -3.118  22.626  0.00  0.00     0.064 A 
HETATM    4  C   UNK     0      -7.232  -2.026  21.986  0.00  0.00     0.105 A 
HETATM    5  C   UNK     0      -7.780  -0.597  21.822  0.00  0.00     0.009 A 
HETATM    6  C   UNK     0      -9.205  -0.259  22.298  0.00  0.00     0.057 A 
HETATM    7  C   UNK     0     -10.412  -3.871  23.742  0.00  0.00     0.044 C 
ENDROOT
BRANCH   3   8
HETATM    8  S   UNK     0      -7.562  -4.548  22.790  0.00  0.00     0.253 S 
HETATM    9  O   UNK     0      -7.510  -6.019  22.337  0.00  0.00    -0.201 OA
HETATM   10  O   UNK     0      -8.409  -5.014  21.593  0.00  0.00    -0.201 OA
BRANCH   8  11
HETATM   11  N   UNK     0      -6.542  -4.857  23.927  0.00  0.00    -0.324 N 
HETATM   12  HN2 UNK     0      -6.462  -4.211  24.712  1.00  0.00     0.169 HD
HETATM   13  HN1 UNK     0      -5.968  -5.697  23.874  1.00  0.00     0.169 HD
ENDBRANCH   8  11
ENDBRANCH   3   8
BRANCH   5  14
HETATM   14  N   UNK     0      -6.903   0.495  21.182  0.00  0.00    -0.199 N 
HETATM   15  HN  UNK     0      -7.039   0.751  20.204  1.00  0.00     0.183 HD
BRANCH  14  16
HETATM   16  C   UNK     0      -5.819   1.202  22.019  0.00  0.00     0.679 A 
HETATM   17  N   UNK     0      -6.186   2.428  22.875  0.00  0.00    -0.226 N 
HETATM   18  C   UNK     0      -5.104   3.135  23.711  0.00  0.00     0.145 A 
HETATM   19  HN  UNK     0      -7.146   2.773  22.888  1.00  0.00     0.177 HD
HETATM   20  C   UNK     0      -3.654   2.615  23.692  0.00  0.00     0.097 A 
HETATM   21  C   UNK     0      -3.287   1.389  22.835  0.00  0.00     0.100 A 
HETATM   22  N   UNK     0      -4.371   0.682  21.999  0.00  0.00    -0.180 N 
HETATM   23  HN  UNK     0      -4.128  -0.130  21.432  1.00  0.00     0.185 HD
BRANCH  21  24
HETATM   24  N   UNK     0      -1.833   0.867  22.816  0.00  0.00    -0.347 N 
HETATM   25  C   UNK     0      -0.661   1.858  22.890  0.00  0.00     0.157 C 
BRANCH  24  26
HETATM   26  C   UNK     0      -1.563  -0.627  22.724  0.00  0.00    -0.004 A 
HETATM   27  C   UNK     0      -0.693  -1.188  21.568  0.00  0.00     0.057 A 
HETATM   28  C   UNK     0      -0.419  -2.700  21.475  0.00  0.00     0.048 A 
HETATM   29  C   UNK     0      -1.008  -3.656  22.529  0.00  0.00    -0.010 A 
HETATM   30  C   UNK     0      -1.879  -3.095  23.685  0.00  0.00     0.039 A 
HETATM   31  C   UNK     0      -0.914  -5.195  22.703  0.00  0.00     0.032 A 
HETATM   32  C   UNK     0      -2.152  -1.583  23.778  0.00  0.00     0.111 A 
HETATM   33  N   UNK     0      -2.322  -4.287  24.573  0.00  0.00    -0.302 N 
HETATM   34  N   UNK     0      -1.726  -5.585  23.967  0.00  0.00    -0.300 N 
HETATM   35  HN  UNK     0      -2.903  -4.229  25.410  1.00  0.00     0.186 HD
HETATM   36  C   UNK     0      -1.907  -7.006  24.520  0.00  0.00     0.177 C 
HETATM   37  C   UNK     0      -0.160  -6.151  21.797  0.00  0.00     0.070 C 
ENDBRANCH  24  26
ENDBRANCH  21  24
ENDBRANCH  14  16
ENDBRANCH   5  14
TORSDOF 6
ENDMDL
