MODEL 7
REMARK VINA RESULT:      -8.2      4.759      9.130
REMARK  6 active torsions:
REMARK  status: ('A' for Active; 'I' for Inactive)
REMARK    1  A    between atoms: C_3  and  S_21 
REMARK    2  A    between atoms: C_5  and  N_10 
REMARK    3  A    between atoms: C_9  and  N_10 
REMARK    4  A    between atoms: C_14  and  N_17 
REMARK    5  A    between atoms: N_17  and  C_18 
REMARK    6  A    between atoms: S_21  and  N_33 
ROOT
HETATM    1  C   UNK     0      -0.225  -8.411  12.476  0.00  0.00     0.040 A 
HETATM    2  C   UNK     0       0.791  -7.549  11.702  0.00  0.00    -0.064 A 
HETATM    3  C   UNK     0       1.611  -6.475  12.442  0.00  0.00     0.064 A 
HETATM    4  C   UNK     0       1.415  -6.264  13.955  0.00  0.00     0.105 A 
HETATM    5  C   UNK     0       0.400  -7.125  14.728  0.00  0.00     0.009 A 
HETATM    6  C   UNK     0      -0.420  -8.199  13.988  0.00  0.00     0.057 A 
HETATM    7  C   UNK     0       0.986  -7.761  10.190  0.00  0.00     0.044 C 
ENDROOT
BRANCH   3   8
HETATM    8  S   UNK     0       2.626  -5.613  11.669  0.00  0.00     0.253 S 
HETATM    9  O   UNK     0       3.736  -4.546  11.655  0.00  0.00    -0.201 OA
HETATM   10  O   UNK     0       3.089  -4.969  12.987  0.00  0.00    -0.201 OA
BRANCH   8  11
HETATM   11  N   UNK     0       2.729  -5.748  10.120  0.00  0.00    -0.324 N 
HETATM   12  HN2 UNK     0       2.270  -5.054   9.529  1.00  0.00     0.169 HD
HETATM   13  HN1 UNK     0       3.251  -6.524   9.715  1.00  0.00     0.169 HD
ENDBRANCH   8  11
ENDBRANCH   3   8
BRANCH   5  14
HETATM   14  N   UNK     0       0.204  -6.914  16.241  0.00  0.00    -0.199 N 
HETATM   15  HN  UNK     0      -0.381  -6.149  16.577  1.00  0.00     0.183 HD
BRANCH  14  16
HETATM   16  C   UNK     0       0.891  -7.857  17.246  0.00  0.00     0.679 A 
HETATM   17  N   UNK     0       2.037  -8.774  16.781  0.00  0.00    -0.226 N 
HETATM   18  C   UNK     0       2.724  -9.717  17.785  0.00  0.00     0.145 A 
HETATM   19  HN  UNK     0       2.342  -8.757  15.808  1.00  0.00     0.177 HD
HETATM   20  C   UNK     0       2.264  -9.744  19.255  0.00  0.00     0.097 A 
HETATM   21  C   UNK     0       1.117  -8.827  19.720  0.00  0.00     0.100 A 
HETATM   22  N   UNK     0       0.431  -7.884  18.715  0.00  0.00    -0.180 N 
HETATM   23  HN  UNK     0      -0.329  -7.277  19.022  1.00  0.00     0.185 HD
BRANCH  21  24
HETATM   24  N   UNK     0       0.656  -8.854  21.194  0.00  0.00    -0.347 N 
HETATM   25  C   UNK     0       0.797 -10.143  22.019  0.00  0.00     0.157 C 
BRANCH  24  26
HETATM   26  C   UNK     0       0.063  -7.605  21.828  0.00  0.00    -0.004 A 
HETATM   27  C   UNK     0       0.693  -6.217  21.542  0.00  0.00     0.057 A 
HETATM   28  C   UNK     0       0.092  -4.952  22.184  0.00  0.00     0.048 A 
HETATM   29  C   UNK     0      -1.133  -5.066  23.110  0.00  0.00    -0.010 A 
HETATM   30  C   UNK     0      -1.763  -6.456  23.396  0.00  0.00     0.039 A 
HETATM   31  C   UNK     0      -1.949  -4.001  23.889  0.00  0.00     0.032 A 
HETATM   32  C   UNK     0      -1.162  -7.720  22.754  0.00  0.00     0.111 A 
HETATM   33  N   UNK     0      -2.968  -6.248  24.352  0.00  0.00    -0.302 N 
HETATM   34  N   UNK     0      -3.082  -4.732  24.656  0.00  0.00    -0.300 N 
HETATM   35  HN  UNK     0      -3.578  -6.981  24.716  1.00  0.00     0.186 HD
HETATM   36  C   UNK     0      -4.134  -4.069  25.559  0.00  0.00     0.177 C 
HETATM   37  C   UNK     0      -1.684  -2.506  23.899  0.00  0.00     0.070 C 
ENDBRANCH  24  26
ENDBRANCH  21  24
ENDBRANCH  14  16
ENDBRANCH   5  14
TORSDOF 6
ENDMDL
