MODEL 9
REMARK VINA RESULT:      -8.1      7.894     14.453
REMARK  5 active torsions:
REMARK  status: ('A' for Active; 'I' for Inactive)
REMARK    1  A    between atoms: N_1  and  C_5 
REMARK    2  A    between atoms: N_1  and  C_6 
REMARK    3  A    between atoms: N_3  and  C_9 
REMARK    4  A    between atoms: N_3  and  C_22 
REMARK    5  A    between atoms: O_17  and  C_18 
ROOT
HETATM    1  N   UNK     0       5.764  -1.259   6.998  0.00  0.00    -0.199 N 
HETATM    2  HN  UNK     0       6.656  -1.173   6.512  1.00  0.00     0.183 HD
ENDROOT
BRANCH   1   3
HETATM    3  C   UNK     0       4.561  -0.405   6.556  0.00  0.00     0.016 A 
HETATM    4  C   UNK     0       4.791   0.952   5.867  0.00  0.00     0.120 A 
HETATM    5  C   UNK     0       3.588   1.805   5.425  0.00  0.00     0.087 A 
HETATM    6  C   UNK     0       2.154   1.301   5.672  0.00  0.00     0.128 A 
HETATM    7  O   UNK     0       3.819   3.163   4.736  0.00  0.00    -0.350 OA
HETATM    8  C   UNK     0       1.923  -0.057   6.361  0.00  0.00     0.086 A 
HETATM    9  O   UNK     0       0.951   2.155   5.229  0.00  0.00    -0.344 OA
HETATM   10  C   UNK     0       3.127  -0.910   6.803  0.00  0.00     0.120 A 
HETATM   11  C   UNK     0       1.181   3.512   4.541  0.00  0.00     0.202 A 
HETATM   12  C   UNK     0       2.615   4.017   4.294  0.00  0.00     0.202 A 
BRANCH   8  13
HETATM   13  O   UNK     0       0.489  -0.562   6.608  0.00  0.00    -0.357 OA
HETATM   14  C   UNK     0      -0.267  -0.140   7.881  0.00  0.00     0.209 C 
ENDBRANCH   8  13
ENDBRANCH   1   3
BRANCH   1  15
HETATM   15  C   UNK     0       5.620  -2.242   8.175  0.00  0.00     0.679 A 
HETATM   16  N   UNK     0       6.651  -2.232   9.319  0.00  0.00    -0.226 N 
HETATM   17  C   UNK     0       6.507  -3.215  10.495  0.00  0.00     0.145 A 
HETATM   18  HN  UNK     0       7.430  -1.573   9.297  1.00  0.00     0.177 HD
HETATM   19  C   UNK     0       5.331  -4.208  10.528  0.00  0.00     0.097 A 
HETATM   20  C   UNK     0       4.300  -4.219   9.385  0.00  0.00     0.099 A 
HETATM   21  N   UNK     0       4.444  -3.236   8.208  0.00  0.00    -0.181 N 
HETATM   22  HN  UNK     0       3.761  -3.243   7.451  1.00  0.00     0.185 HD
BRANCH  20  23
HETATM   23  N   UNK     0       3.124  -5.213   9.417  0.00  0.00    -0.352 N 
HETATM   24  HN  UNK     0       2.706  -5.538   8.546  1.00  0.00     0.166 HD
BRANCH  23  25
HETATM   25  C   UNK     0       2.578  -5.717  10.766  0.00  0.00    -0.006 A 
HETATM   26  C   UNK     0       3.128  -5.139  12.083  0.00  0.00     0.057 A 
HETATM   27  C   UNK     0       2.582  -5.643  13.433  0.00  0.00     0.048 A 
HETATM   28  C   UNK     0       1.487  -6.725  13.465  0.00  0.00    -0.010 A 
HETATM   29  C   UNK     0       0.756  -7.417  14.630  0.00  0.00     0.030 A 
HETATM   30  C   UNK     0       0.937  -7.303  12.147  0.00  0.00     0.039 A 
HETATM   31  C   UNK     0       0.986  -7.150  16.129  0.00  0.00     0.070 C 
HETATM   32  N   UNK     0      -0.245  -8.422  14.033  0.00  0.00    -0.304 N 
HETATM   33  N   UNK     0      -0.133  -8.352  12.498  0.00  0.00    -0.304 N 
HETATM   34  HN  UNK     0      -0.873  -9.029  14.561  1.00  0.00     0.186 HD
HETATM   35  HN  UNK     0      -0.673  -8.904  11.832  1.00  0.00     0.186 HD
HETATM   36  C   UNK     0       1.483  -6.799  10.798  0.00  0.00     0.111 A 
ENDBRANCH  23  25
ENDBRANCH  20  23
ENDBRANCH   1  15
TORSDOF 5
ENDMDL
