MODEL 5
REMARK VINA RESULT:      -9.0      3.311      6.456
REMARK  5 active torsions:
REMARK  status: ('A' for Active; 'I' for Inactive)
REMARK    1  A    between atoms: N_1  and  C_5 
REMARK    2  A    between atoms: N_1  and  C_6 
REMARK    3  A    between atoms: N_3  and  C_9 
REMARK    4  A    between atoms: N_3  and  C_22 
REMARK    5  A    between atoms: O_17  and  C_18 
ROOT
HETATM    1  N   UNK     0      -0.521  -5.025  24.432  0.00  0.00    -0.199 N 
HETATM    2  HN  UNK     0       0.251  -4.599  24.945  1.00  0.00     0.183 HD
ENDROOT
BRANCH   1   3
HETATM    3  C   UNK     0      -1.484  -4.143  23.617  0.00  0.00     0.016 A 
HETATM    4  C   UNK     0      -0.982  -3.416  22.356  0.00  0.00     0.120 A 
HETATM    5  C   UNK     0      -1.945  -2.534  21.540  0.00  0.00     0.087 A 
HETATM    6  C   UNK     0      -3.411  -2.378  21.986  0.00  0.00     0.128 A 
HETATM    7  O   UNK     0      -1.443  -1.807  20.279  0.00  0.00    -0.350 OA
HETATM    8  C   UNK     0      -3.913  -3.104  23.248  0.00  0.00     0.086 A 
HETATM    9  O   UNK     0      -4.374  -1.495  21.170  0.00  0.00    -0.344 OA
HETATM   10  C   UNK     0      -2.950  -3.987  24.063  0.00  0.00     0.120 A 
HETATM   11  C   UNK     0      -3.872  -0.769  19.909  0.00  0.00     0.202 A 
HETATM   12  C   UNK     0      -2.406  -0.925  19.463  0.00  0.00     0.202 A 
BRANCH   8  13
HETATM   13  O   UNK     0      -5.379  -2.948  23.694  0.00  0.00    -0.357 OA
HETATM   14  C   UNK     0      -6.483  -3.777  23.013  0.00  0.00     0.209 C 
ENDBRANCH   8  13
ENDBRANCH   1   3
BRANCH   1  15
HETATM   15  C   UNK     0      -0.724  -6.551  24.475  0.00  0.00     0.679 A 
HETATM   16  N   UNK     0      -1.659  -7.175  25.527  0.00  0.00    -0.226 N 
HETATM   17  C   UNK     0      -1.862  -8.701  25.569  0.00  0.00     0.145 A 
HETATM   18  HN  UNK     0      -2.144  -6.578  26.196  1.00  0.00     0.177 HD
HETATM   19  C   UNK     0      -1.129  -9.603  24.558  0.00  0.00     0.097 A 
HETATM   20  C   UNK     0      -0.194  -8.980  23.506  0.00  0.00     0.099 A 
HETATM   21  N   UNK     0       0.009  -7.453  23.464  0.00  0.00    -0.181 N 
HETATM   22  HN  UNK     0       0.628  -7.040  22.767  1.00  0.00     0.185 HD
BRANCH  20  23
HETATM   23  N   UNK     0       0.539  -9.882  22.496  0.00  0.00    -0.352 N 
HETATM   24  HN  UNK     0       0.927 -10.775  22.797  1.00  0.00     0.166 HD
BRANCH  23  25
HETATM   25  C   UNK     0       0.686  -9.435  21.030  0.00  0.00    -0.006 A 
HETATM   26  C   UNK     0      -0.255  -8.361  20.454  0.00  0.00     0.057 A 
HETATM   27  C   UNK     0      -0.108  -7.914  18.987  0.00  0.00     0.048 A 
HETATM   28  C   UNK     0       0.981  -8.542  18.097  0.00  0.00    -0.010 A 
HETATM   29  C   UNK     0       1.369  -8.309  16.625  0.00  0.00     0.030 A 
HETATM   30  C   UNK     0       1.923  -9.615  18.673  0.00  0.00     0.039 A 
HETATM   31  C   UNK     0       0.694  -7.319  15.657  0.00  0.00     0.070 C 
HETATM   32  N   UNK     0       2.550  -9.239  16.292  0.00  0.00    -0.304 N 
HETATM   33  N   UNK     0       2.892 -10.046  17.558  0.00  0.00    -0.304 N 
HETATM   34  HN  UNK     0       3.023  -9.308  15.391  1.00  0.00     0.186 HD
HETATM   35  HN  UNK     0       3.631 -10.744  17.642  1.00  0.00     0.186 HD
HETATM   36  C   UNK     0       1.775 -10.062  20.140  0.00  0.00     0.111 A 
ENDBRANCH  23  25
ENDBRANCH  20  23
ENDBRANCH   1  15
TORSDOF 5
ENDMDL
