MODEL 3
REMARK VINA RESULT:      -9.3      6.769     12.769
REMARK  5 active torsions:
REMARK  status: ('A' for Active; 'I' for Inactive)
REMARK    1  A    between atoms: N_1  and  C_5 
REMARK    2  A    between atoms: N_1  and  C_6 
REMARK    3  A    between atoms: N_3  and  C_9 
REMARK    4  A    between atoms: N_3  and  C_22 
REMARK    5  A    between atoms: O_17  and  C_18 
ROOT
HETATM    1  N   UNK     0       4.634  -4.515  10.508  0.00  0.00    -0.199 N 
HETATM    2  HN  UNK     0       5.525  -4.721  10.958  1.00  0.00     0.183 HD
ENDROOT
BRANCH   1   3
HETATM    3  C   UNK     0       4.546  -3.401   9.449  0.00  0.00     0.016 A 
HETATM    4  C   UNK     0       3.172  -2.854   9.019  0.00  0.00     0.120 A 
HETATM    5  C   UNK     0       3.084  -1.739   7.960  0.00  0.00     0.087 A 
HETATM    6  C   UNK     0       4.369  -1.172   7.330  0.00  0.00     0.128 A 
HETATM    7  O   UNK     0       1.710  -1.192   7.530  0.00  0.00    -0.350 OA
HETATM    8  C   UNK     0       5.744  -1.719   7.760  0.00  0.00     0.086 A 
HETATM    9  O   UNK     0       4.281  -0.058   6.271  0.00  0.00    -0.344 OA
HETATM   10  C   UNK     0       5.832  -2.834   8.819  0.00  0.00     0.120 A 
HETATM   11  C   UNK     0       2.908   0.489   5.841  0.00  0.00     0.202 A 
HETATM   12  C   UNK     0       1.622  -0.078   6.471  0.00  0.00     0.202 A 
BRANCH   8  13
HETATM   13  O   UNK     0       7.030  -1.152   7.130  0.00  0.00    -0.357 OA
HETATM   14  C   UNK     0       7.598   0.192   7.620  0.00  0.00     0.209 C 
ENDBRANCH   8  13
ENDBRANCH   1   3
BRANCH   1  15
HETATM   15  C   UNK     0       3.375  -5.318  10.887  0.00  0.00     0.679 A 
HETATM   16  N   UNK     0       2.810  -6.370   9.914  0.00  0.00    -0.226 N 
HETATM   17  C   UNK     0       1.552  -7.172  10.294  0.00  0.00     0.145 A 
HETATM   18  HN  UNK     0       3.269  -6.534   9.018  1.00  0.00     0.177 HD
HETATM   19  C   UNK     0       0.859  -6.924  11.646  0.00  0.00     0.097 A 
HETATM   20  C   UNK     0       1.423  -5.873  12.619  0.00  0.00     0.099 A 
HETATM   21  N   UNK     0       2.682  -5.070  12.240  0.00  0.00    -0.181 N 
HETATM   22  HN  UNK     0       3.056  -4.374  12.884  1.00  0.00     0.185 HD
BRANCH  20  23
HETATM   23  N   UNK     0       0.730  -5.624  13.972  0.00  0.00    -0.352 N 
HETATM   24  HN  UNK     0       0.134  -4.807  14.096  1.00  0.00     0.166 HD
BRANCH  23  25
HETATM   25  C   UNK     0       0.938  -6.610  15.136  0.00  0.00    -0.006 A 
HETATM   26  C   UNK     0      -0.083  -6.667  16.288  0.00  0.00     0.057 A 
HETATM   27  C   UNK     0       0.125  -7.654  17.452  0.00  0.00     0.048 A 
HETATM   28  C   UNK     0       1.354  -8.583  17.465  0.00  0.00    -0.010 A 
HETATM   29  C   UNK     0       1.826  -9.652  18.467  0.00  0.00     0.030 A 
HETATM   30  C   UNK     0       2.374  -8.525  16.313  0.00  0.00     0.039 A 
HETATM   31  C   UNK     0       1.112 -10.048  19.773  0.00  0.00     0.070 C 
HETATM   32  N   UNK     0       3.139 -10.255  17.934  0.00  0.00    -0.304 N 
HETATM   33  N   UNK     0       3.478  -9.559  16.603  0.00  0.00    -0.304 N 
HETATM   34  HN  UNK     0       3.688 -10.987  18.384  1.00  0.00     0.186 HD
HETATM   35  HN  UNK     0       4.290  -9.749  16.016  1.00  0.00     0.186 HD
HETATM   36  C   UNK     0       2.166  -7.539  15.148  0.00  0.00     0.111 A 
ENDBRANCH  23  25
ENDBRANCH  20  23
ENDBRANCH   1  15
TORSDOF 5
ENDMDL
