MODEL 18
REMARK VINA RESULT:      -7.4      2.272      3.463
REMARK  5 active torsions:
REMARK  status: ('A' for Active; 'I' for Inactive)
REMARK    1  A    between atoms: N_1  and  C_5 
REMARK    2  A    between atoms: N_1  and  C_6 
REMARK    3  A    between atoms: N_3  and  C_9 
REMARK    4  A    between atoms: N_3  and  C_22 
REMARK    5  A    between atoms: O_17  and  C_18 
ROOT
HETATM    1  N   UNK     0      -0.788  -8.277  21.915  0.00  0.00    -0.199 N 
HETATM    2  HN  UNK     0      -1.656  -7.764  21.764  1.00  0.00     0.183 HD
ENDROOT
BRANCH   1   3
HETATM    3  C   UNK     0      -0.372  -8.682  23.341  0.00  0.00     0.016 A 
HETATM    4  C   UNK     0      -0.397 -10.163  23.759  0.00  0.00     0.120 A 
HETATM    5  C   UNK     0       0.019 -10.568  25.186  0.00  0.00     0.087 A 
HETATM    6  C   UNK     0       0.461  -9.492  26.194  0.00  0.00     0.128 A 
HETATM    7  O   UNK     0      -0.006 -12.051  25.603  0.00  0.00    -0.350 OA
HETATM    8  C   UNK     0       0.486  -8.010  25.776  0.00  0.00     0.086 A 
HETATM    9  O   UNK     0       0.877  -9.897  27.620  0.00  0.00    -0.344 OA
HETATM   10  C   UNK     0       0.070  -7.605  24.350  0.00  0.00     0.120 A 
HETATM   11  C   UNK     0       0.852 -11.379  28.038  0.00  0.00     0.202 A 
HETATM   12  C   UNK     0       0.410 -12.456  27.030  0.00  0.00     0.202 A 
BRANCH   8  13
HETATM   13  O   UNK     0       0.927  -6.933  26.785  0.00  0.00    -0.357 OA
HETATM   14  C   UNK     0       1.250  -5.509  26.298  0.00  0.00     0.209 C 
ENDBRANCH   8  13
ENDBRANCH   1   3
BRANCH   1  15
HETATM   15  C   UNK     0       0.107  -8.647  20.718  0.00  0.00     0.679 A 
HETATM   16  N   UNK     0       0.580 -10.100  20.529  0.00  0.00    -0.226 N 
HETATM   17  C   UNK     0       1.475 -10.469  19.332  0.00  0.00     0.145 A 
HETATM   18  HN  UNK     0       0.301 -10.818  21.197  1.00  0.00     0.177 HD
HETATM   19  C   UNK     0       1.897  -9.385  18.323  0.00  0.00     0.097 A 
HETATM   20  C   UNK     0       1.425  -7.932  18.511  0.00  0.00     0.099 A 
HETATM   21  N   UNK     0       0.529  -7.563  19.708  0.00  0.00    -0.181 N 
HETATM   22  HN  UNK     0       0.216  -6.600  19.833  1.00  0.00     0.185 HD
BRANCH  20  23
HETATM   23  N   UNK     0       1.847  -6.848  17.502  0.00  0.00    -0.352 N 
HETATM   24  HN  UNK     0       2.323  -6.007  17.826  1.00  0.00     0.166 HD
BRANCH  23  25
HETATM   25  C   UNK     0       1.550  -7.034  16.003  0.00  0.00    -0.006 A 
HETATM   26  C   UNK     0       0.435  -7.996  15.552  0.00  0.00     0.057 A 
HETATM   27  C   UNK     0       0.138  -8.182  14.052  0.00  0.00     0.048 A 
HETATM   28  C   UNK     0       0.957  -7.406  13.003  0.00  0.00    -0.010 A 
HETATM   29  C   UNK     0       0.899  -7.380  11.464  0.00  0.00     0.030 A 
HETATM   30  C   UNK     0       2.072  -6.445  13.454  0.00  0.00     0.039 A 
HETATM   31  C   UNK     0      -0.069  -8.189  10.581  0.00  0.00     0.070 C 
HETATM   32  N   UNK     0       1.978  -6.402  10.965  0.00  0.00    -0.304 N 
HETATM   33  N   UNK     0       2.703  -5.824  12.194  0.00  0.00    -0.304 N 
HETATM   34  HN  UNK     0       2.178  -6.176   9.990  1.00  0.00     0.186 HD
HETATM   35  HN  UNK     0       3.468  -5.149  12.177  1.00  0.00     0.186 HD
HETATM   36  C   UNK     0       2.369  -6.259  14.953  0.00  0.00     0.111 A 
ENDBRANCH  23  25
ENDBRANCH  20  23
ENDBRANCH   1  15
TORSDOF 5
ENDMDL
