MODEL 14
REMARK VINA RESULT:      -7.7      3.963      7.570
REMARK  5 active torsions:
REMARK  status: ('A' for Active; 'I' for Inactive)
REMARK    1  A    between atoms: N_1  and  C_5 
REMARK    2  A    between atoms: N_1  and  C_6 
REMARK    3  A    between atoms: N_3  and  C_9 
REMARK    4  A    between atoms: N_3  and  C_22 
REMARK    5  A    between atoms: O_17  and  C_18 
ROOT
HETATM    1  N   UNK     0      -1.222  -3.495  25.990  0.00  0.00    -0.199 N 
HETATM    2  HN  UNK     0      -0.932  -2.794  26.672  1.00  0.00     0.183 HD
ENDROOT
BRANCH   1   3
HETATM    3  C   UNK     0      -2.252  -3.134  24.904  0.00  0.00     0.016 A 
HETATM    4  C   UNK     0      -1.819  -2.317  23.674  0.00  0.00     0.120 A 
HETATM    5  C   UNK     0      -2.850  -1.956  22.587  0.00  0.00     0.087 A 
HETATM    6  C   UNK     0      -4.313  -2.413  22.732  0.00  0.00     0.128 A 
HETATM    7  O   UNK     0      -2.417  -1.138  21.356  0.00  0.00    -0.350 OA
HETATM    8  C   UNK     0      -4.746  -3.231  23.963  0.00  0.00     0.086 A 
HETATM    9  O   UNK     0      -5.343  -2.052  21.646  0.00  0.00    -0.344 OA
HETATM   10  C   UNK     0      -3.716  -3.591  25.049  0.00  0.00     0.120 A 
HETATM   11  C   UNK     0      -4.911  -1.235  20.415  0.00  0.00     0.202 A 
HETATM   12  C   UNK     0      -3.447  -0.778  20.270  0.00  0.00     0.202 A 
BRANCH   8  13
HETATM   13  O   UNK     0      -6.210  -3.688  24.108  0.00  0.00    -0.357 OA
HETATM   14  C   UNK     0      -6.709  -4.925  23.340  0.00  0.00     0.209 C 
ENDBRANCH   8  13
ENDBRANCH   1   3
BRANCH   1  15
HETATM   15  C   UNK     0      -0.627  -4.915  26.047  0.00  0.00     0.679 A 
HETATM   16  N   UNK     0       0.439  -5.262  27.102  0.00  0.00    -0.226 N 
HETATM   17  C   UNK     0       1.033  -6.681  27.159  0.00  0.00     0.145 A 
HETATM   18  HN  UNK     0       0.753  -4.551  27.764  1.00  0.00     0.177 HD
HETATM   19  C   UNK     0       0.560  -7.754  26.160  0.00  0.00     0.097 A 
HETATM   20  C   UNK     0      -0.506  -7.408  25.105  0.00  0.00     0.099 A 
HETATM   21  N   UNK     0      -1.100  -5.988  25.048  0.00  0.00    -0.181 N 
HETATM   22  HN  UNK     0      -1.807  -5.758  24.350  1.00  0.00     0.185 HD
BRANCH  20  23
HETATM   23  N   UNK     0      -0.979  -8.480  24.107  0.00  0.00    -0.352 N 
HETATM   24  HN  UNK     0      -1.629  -9.206  24.408  1.00  0.00     0.166 HD
BRANCH  23  25
HETATM   25  C   UNK     0      -0.471  -8.457  22.654  0.00  0.00    -0.006 A 
HETATM   26  C   UNK     0      -0.912  -7.330  21.701  0.00  0.00     0.057 A 
HETATM   27  C   UNK     0      -0.403  -7.307  20.248  0.00  0.00     0.048 A 
HETATM   28  C   UNK     0       0.546  -8.411  19.746  0.00  0.00    -0.010 A 
HETATM   29  C   UNK     0       1.210  -8.656  18.379  0.00  0.00     0.030 A 
HETATM   30  C   UNK     0       0.987  -9.539  20.698  0.00  0.00     0.039 A 
HETATM   31  C   UNK     0       1.051  -7.777  17.124  0.00  0.00     0.070 C 
HETATM   32  N   UNK     0       2.061  -9.935  18.486  0.00  0.00    -0.304 N 
HETATM   33  N   UNK     0       1.923 -10.481  19.920  0.00  0.00    -0.304 N 
HETATM   34  HN  UNK     0       2.618 -10.349  17.739  1.00  0.00     0.186 HD
HETATM   35  HN  UNK     0       2.373 -11.318  20.289  1.00  0.00     0.186 HD
HETATM   36  C   UNK     0       0.478  -9.561  22.152  0.00  0.00     0.111 A 
ENDBRANCH  23  25
ENDBRANCH  20  23
ENDBRANCH   1  15
TORSDOF 5
ENDMDL
