MODEL 17
REMARK VINA RESULT:      -7.5      4.973      7.178
REMARK  5 active torsions:
REMARK  status: ('A' for Active; 'I' for Inactive)
REMARK    1  A    between atoms: N_1  and  C_5 
REMARK    2  A    between atoms: N_1  and  C_6 
REMARK    3  A    between atoms: N_3  and  C_9 
REMARK    4  A    between atoms: N_3  and  C_22 
REMARK    5  A    between atoms: O_17  and  C_18 
ROOT
HETATM    1  N   UNK     0      -3.729  -6.430  25.393  0.00  0.00    -0.199 N 
HETATM    2  HN  UNK     0      -3.664  -6.745  26.361  1.00  0.00     0.183 HD
ENDROOT
BRANCH   1   3
HETATM    3  C   UNK     0      -5.094  -6.030  24.803  0.00  0.00     0.016 A 
HETATM    4  C   UNK     0      -5.258  -4.675  24.092  0.00  0.00     0.120 A 
HETATM    5  C   UNK     0      -6.624  -4.275  23.502  0.00  0.00     0.087 A 
HETATM    6  C   UNK     0      -7.825  -5.230  23.624  0.00  0.00     0.128 A 
HETATM    7  O   UNK     0      -6.788  -2.919  22.790  0.00  0.00    -0.350 OA
HETATM    8  C   UNK     0      -7.661  -6.586  24.336  0.00  0.00     0.086 A 
HETATM    9  O   UNK     0      -9.190  -4.830  23.035  0.00  0.00    -0.344 OA
HETATM   10  C   UNK     0      -6.295  -6.986  24.926  0.00  0.00     0.120 A 
HETATM   11  C   UNK     0      -9.354  -3.475  22.323  0.00  0.00     0.202 A 
HETATM   12  C   UNK     0      -8.153  -2.519  22.201  0.00  0.00     0.202 A 
BRANCH   8  13
HETATM   13  O   UNK     0      -8.862  -7.542  24.459  0.00  0.00    -0.357 OA
HETATM   14  C   UNK     0      -9.670  -7.599  25.768  0.00  0.00     0.209 C 
ENDBRANCH   8  13
ENDBRANCH   1   3
BRANCH   1  15
HETATM   15  C   UNK     0      -2.461  -6.354  24.521  0.00  0.00     0.679 A 
HETATM   16  N   UNK     0      -1.682  -5.030  24.407  0.00  0.00    -0.226 N 
HETATM   17  C   UNK     0      -0.416  -4.955  23.536  0.00  0.00     0.145 A 
HETATM   18  HN  UNK     0      -2.006  -4.203  24.910  1.00  0.00     0.177 HD
HETATM   19  C   UNK     0       0.073  -6.203  22.777  0.00  0.00     0.097 A 
HETATM   20  C   UNK     0      -0.706  -7.526  22.890  0.00  0.00     0.099 A 
HETATM   21  N   UNK     0      -1.973  -7.602  23.763  0.00  0.00    -0.181 N 
HETATM   22  HN  UNK     0      -2.488  -8.479  23.838  1.00  0.00     0.185 HD
BRANCH  20  23
HETATM   23  N   UNK     0      -0.217  -8.774  22.132  0.00  0.00    -0.352 N 
HETATM   24  HN  UNK     0      -0.166  -9.674  22.609  1.00  0.00     0.166 HD
BRANCH  23  25
HETATM   25  C   UNK     0       0.194  -8.664  20.653  0.00  0.00    -0.006 A 
HETATM   26  C   UNK     0      -0.628  -7.791  19.687  0.00  0.00     0.057 A 
HETATM   27  C   UNK     0      -0.216  -7.681  18.207  0.00  0.00     0.048 A 
HETATM   28  C   UNK     0       1.018  -8.445  17.692  0.00  0.00    -0.010 A 
HETATM   29  C   UNK     0       1.667  -8.534  16.299  0.00  0.00     0.030 A 
HETATM   30  C   UNK     0       1.840  -9.319  18.658  0.00  0.00     0.039 A 
HETATM   31  C   UNK     0       1.178  -7.820  15.025  0.00  0.00     0.070 C 
HETATM   32  N   UNK     0       2.891  -9.463  16.404  0.00  0.00    -0.304 N 
HETATM   33  N   UNK     0       2.998  -9.948  17.861  0.00  0.00    -0.304 N 
HETATM   34  HN  UNK     0       3.520  -9.713  15.641  1.00  0.00     0.186 HD
HETATM   35  HN  UNK     0       3.710 -10.576  18.234  1.00  0.00     0.186 HD
HETATM   36  C   UNK     0       1.428  -9.429  20.138  0.00  0.00     0.111 A 
ENDBRANCH  23  25
ENDBRANCH  20  23
ENDBRANCH   1  15
TORSDOF 5
ENDMDL
