MODEL 2
REMARK VINA RESULT:      -9.5      5.762     11.905
REMARK  5 active torsions:
REMARK  status: ('A' for Active; 'I' for Inactive)
REMARK    1  A    between atoms: N_1  and  C_5 
REMARK    2  A    between atoms: N_1  and  C_6 
REMARK    3  A    between atoms: N_3  and  C_9 
REMARK    4  A    between atoms: N_3  and  C_22 
REMARK    5  A    between atoms: O_17  and  C_18 
ROOT
HETATM    1  N   UNK     0       2.823  -6.139  11.078  0.00  0.00    -0.199 N 
HETATM    2  HN  UNK     0       2.483  -6.880  10.465  1.00  0.00     0.183 HD
ENDROOT
BRANCH   1   3
HETATM    3  C   UNK     0       3.703  -5.011  10.508  0.00  0.00     0.016 A 
HETATM    4  C   UNK     0       5.187  -4.917  10.908  0.00  0.00     0.120 A 
HETATM    5  C   UNK     0       6.068  -3.789  10.338  0.00  0.00     0.087 A 
HETATM    6  C   UNK     0       5.465  -2.756   9.369  0.00  0.00     0.128 A 
HETATM    7  O   UNK     0       7.552  -3.695  10.738  0.00  0.00    -0.350 OA
HETATM    8  C   UNK     0       3.981  -2.851   8.968  0.00  0.00     0.086 A 
HETATM    9  O   UNK     0       6.346  -1.629   8.799  0.00  0.00    -0.344 OA
HETATM   10  C   UNK     0       3.100  -3.978   9.538  0.00  0.00     0.120 A 
HETATM   11  C   UNK     0       7.829  -1.534   9.199  0.00  0.00     0.202 A 
HETATM   12  C   UNK     0       8.433  -2.567  10.169  0.00  0.00     0.202 A 
BRANCH   8  13
HETATM   13  O   UNK     0       3.377  -1.818   7.998  0.00  0.00    -0.357 OA
HETATM   14  C   UNK     0       3.512  -2.019   6.478  0.00  0.00     0.209 C 
ENDBRANCH   8  13
ENDBRANCH   1   3
BRANCH   1  15
HETATM   15  C   UNK     0       2.455  -6.148  12.573  0.00  0.00     0.679 A 
HETATM   16  N   UNK     0       1.917  -4.869  13.242  0.00  0.00    -0.226 N 
HETATM   17  C   UNK     0       1.550  -4.879  14.737  0.00  0.00     0.145 A 
HETATM   18  HN  UNK     0       1.804  -4.016  12.694  1.00  0.00     0.177 HD
HETATM   19  C   UNK     0       1.721  -6.166  15.564  0.00  0.00     0.097 A 
HETATM   20  C   UNK     0       2.259  -7.445  14.896  0.00  0.00     0.099 A 
HETATM   21  N   UNK     0       2.626  -7.436  13.400  0.00  0.00    -0.181 N 
HETATM   22  HN  UNK     0       2.983  -8.282  12.958  1.00  0.00     0.185 HD
BRANCH  20  23
HETATM   23  N   UNK     0       2.430  -8.733  15.723  0.00  0.00    -0.352 N 
HETATM   24  HN  UNK     0       2.885  -9.547  15.311  1.00  0.00     0.166 HD
BRANCH  23  25
HETATM   25  C   UNK     0       1.914  -8.791  17.172  0.00  0.00    -0.006 A 
HETATM   26  C   UNK     0       2.619  -9.690  18.205  0.00  0.00     0.057 A 
HETATM   27  C   UNK     0       2.102  -9.748  19.655  0.00  0.00     0.048 A 
HETATM   28  C   UNK     0       0.881  -8.908  20.072  0.00  0.00    -0.010 A 
HETATM   29  C   UNK     0       0.144  -8.757  21.416  0.00  0.00     0.030 A 
HETATM   30  C   UNK     0       0.175  -8.010  19.039  0.00  0.00     0.039 A 
HETATM   31  C   UNK     0       0.505  -9.472  22.731  0.00  0.00     0.070 C 
HETATM   32  N   UNK     0      -1.016  -7.765  21.213  0.00  0.00    -0.304 N 
HETATM   33  N   UNK     0      -0.997  -7.303  19.744  0.00  0.00    -0.304 N 
HETATM   34  HN  UNK     0      -1.681  -7.466  21.927  1.00  0.00     0.186 HD
HETATM   35  HN  UNK     0      -1.646  -6.645  19.314  1.00  0.00     0.186 HD
HETATM   36  C   UNK     0       0.692  -7.951  17.589  0.00  0.00     0.111 A 
ENDBRANCH  23  25
ENDBRANCH  20  23
ENDBRANCH   1  15
TORSDOF 5
ENDMDL
