MODEL 4
REMARK VINA RESULT:      -9.3      1.274      2.538
REMARK  5 active torsions:
REMARK  status: ('A' for Active; 'I' for Inactive)
REMARK    1  A    between atoms: N_1  and  C_5 
REMARK    2  A    between atoms: N_1  and  C_6 
REMARK    3  A    between atoms: N_3  and  C_9 
REMARK    4  A    between atoms: N_3  and  C_22 
REMARK    5  A    between atoms: O_17  and  C_18 
ROOT
HETATM    1  N   UNK     0       0.477  -8.752  21.944  0.00  0.00    -0.199 N 
HETATM    2  HN  UNK     0       0.620  -9.556  22.554  1.00  0.00     0.183 HD
ENDROOT
BRANCH   1   3
HETATM    3  C   UNK     0      -0.227  -7.492  22.482  0.00  0.00     0.016 A 
HETATM    4  C   UNK     0       0.125  -6.108  21.906  0.00  0.00     0.120 A 
HETATM    5  C   UNK     0      -0.579  -4.849  22.444  0.00  0.00     0.087 A 
HETATM    6  C   UNK     0      -1.635  -4.973  23.558  0.00  0.00     0.128 A 
HETATM    7  O   UNK     0      -0.228  -3.465  21.867  0.00  0.00    -0.350 OA
HETATM    8  C   UNK     0      -1.986  -6.357  24.135  0.00  0.00     0.086 A 
HETATM    9  O   UNK     0      -2.339  -3.713  24.096  0.00  0.00    -0.344 OA
HETATM   10  C   UNK     0      -1.282  -7.617  23.597  0.00  0.00     0.120 A 
HETATM   11  C   UNK     0      -1.987  -2.330  23.520  0.00  0.00     0.202 A 
HETATM   12  C   UNK     0      -0.932  -2.205  22.405  0.00  0.00     0.202 A 
BRANCH   8  13
HETATM   13  O   UNK     0      -3.042  -6.482  25.249  0.00  0.00    -0.357 OA
HETATM   14  C   UNK     0      -4.540  -6.452  24.897  0.00  0.00     0.209 C 
ENDBRANCH   8  13
ENDBRANCH   1   3
BRANCH   1  15
HETATM   15  C   UNK     0       0.966  -8.796  20.484  0.00  0.00     0.679 A 
HETATM   16  N   UNK     0       2.281  -9.519  20.133  0.00  0.00    -0.226 N 
HETATM   17  C   UNK     0       2.769  -9.563  18.674  0.00  0.00     0.145 A 
HETATM   18  HN  UNK     0       2.827  -9.968  20.868  1.00  0.00     0.177 HD
HETATM   19  C   UNK     0       1.943  -8.885  17.565  0.00  0.00     0.097 A 
HETATM   20  C   UNK     0       0.630  -8.163  17.915  0.00  0.00     0.099 A 
HETATM   21  N   UNK     0       0.141  -8.118  19.375  0.00  0.00    -0.181 N 
HETATM   22  HN  UNK     0      -0.729  -7.640  19.606  1.00  0.00     0.185 HD
BRANCH  20  23
HETATM   23  N   UNK     0      -0.196  -7.485  16.805  0.00  0.00    -0.352 N 
HETATM   24  HN  UNK     0      -1.193  -7.320  16.940  1.00  0.00     0.166 HD
BRANCH  23  25
HETATM   25  C   UNK     0       0.484  -7.056  15.493  0.00  0.00    -0.006 A 
HETATM   26  C   UNK     0       1.566  -5.960  15.508  0.00  0.00     0.057 A 
HETATM   27  C   UNK     0       2.247  -5.531  14.195  0.00  0.00     0.048 A 
HETATM   28  C   UNK     0       1.845  -6.197  12.865  0.00  0.00    -0.010 A 
HETATM   29  C   UNK     0       2.332  -5.989  11.420  0.00  0.00     0.030 A 
HETATM   30  C   UNK     0       0.763  -7.293  12.850  0.00  0.00     0.039 A 
HETATM   31  C   UNK     0       3.411  -4.989  10.963  0.00  0.00     0.070 C 
HETATM   32  N   UNK     0       1.551  -6.956  10.511  0.00  0.00    -0.304 N 
HETATM   33  N   UNK     0       0.581  -7.762  11.395  0.00  0.00    -0.304 N 
HETATM   34  HN  UNK     0       1.657  -7.047   9.501  1.00  0.00     0.186 HD
HETATM   35  HN  UNK     0      -0.068  -8.480  11.073  1.00  0.00     0.186 HD
HETATM   36  C   UNK     0       0.082  -7.722  14.163  0.00  0.00     0.111 A 
ENDBRANCH  23  25
ENDBRANCH  20  23
ENDBRANCH   1  15
TORSDOF 5
ENDMDL
