MODEL 15
REMARK VINA RESULT:      -7.6      4.013      7.848
REMARK  5 active torsions:
REMARK  status: ('A' for Active; 'I' for Inactive)
REMARK    1  A    between atoms: N_1  and  C_5 
REMARK    2  A    between atoms: N_1  and  C_6 
REMARK    3  A    between atoms: N_3  and  C_9 
REMARK    4  A    between atoms: N_3  and  C_22 
REMARK    5  A    between atoms: O_17  and  C_18 
ROOT
HETATM    1  N   UNK     0      -3.989  -4.097  24.905  0.00  0.00    -0.199 N 
HETATM    2  HN  UNK     0      -4.885  -4.448  25.240  1.00  0.00     0.183 HD
ENDROOT
BRANCH   1   3
HETATM    3  C   UNK     0      -3.930  -2.797  24.082  0.00  0.00     0.016 A 
HETATM    4  C   UNK     0      -5.146  -1.854  24.043  0.00  0.00     0.120 A 
HETATM    5  C   UNK     0      -5.088  -0.554  23.220  0.00  0.00     0.087 A 
HETATM    6  C   UNK     0      -3.812  -0.196  22.436  0.00  0.00     0.128 A 
HETATM    7  O   UNK     0      -6.305   0.388  23.182  0.00  0.00    -0.350 OA
HETATM    8  C   UNK     0      -2.594  -1.139  22.475  0.00  0.00     0.086 A 
HETATM    9  O   UNK     0      -3.753   1.104  21.613  0.00  0.00    -0.344 OA
HETATM   10  C   UNK     0      -2.653  -2.439  23.298  0.00  0.00     0.120 A 
HETATM   11  C   UNK     0      -4.970   2.046  21.574  0.00  0.00     0.202 A 
HETATM   12  C   UNK     0      -6.246   1.689  22.358  0.00  0.00     0.202 A 
BRANCH   8  13
HETATM   13  O   UNK     0      -1.318  -0.781  21.691  0.00  0.00    -0.357 OA
HETATM   14  C   UNK     0      -1.192  -1.170  20.206  0.00  0.00     0.209 C 
ENDBRANCH   8  13
ENDBRANCH   1   3
BRANCH   1  15
HETATM   15  C   UNK     0      -2.693  -4.867  25.223  0.00  0.00     0.679 A 
HETATM   16  N   UNK     0      -1.680  -4.289  26.228  0.00  0.00    -0.226 N 
HETATM   17  C   UNK     0      -0.385  -5.058  26.545  0.00  0.00     0.145 A 
HETATM   18  HN  UNK     0      -1.867  -3.396  26.685  1.00  0.00     0.177 HD
HETATM   19  C   UNK     0      -0.102  -6.407  25.857  0.00  0.00     0.097 A 
HETATM   20  C   UNK     0      -1.114  -6.985  24.851  0.00  0.00     0.099 A 
HETATM   21  N   UNK     0      -2.410  -6.215  24.534  0.00  0.00    -0.181 N 
HETATM   22  HN  UNK     0      -3.081  -6.598  23.868  1.00  0.00     0.185 HD
BRANCH  20  23
HETATM   23  N   UNK     0      -0.832  -8.333  24.163  0.00  0.00    -0.352 N 
HETATM   24  HN  UNK     0      -0.943  -9.204  24.681  1.00  0.00     0.166 HD
BRANCH  23  25
HETATM   25  C   UNK     0      -0.380  -8.366  22.691  0.00  0.00    -0.006 A 
HETATM   26  C   UNK     0      -0.859  -7.277  21.714  0.00  0.00     0.057 A 
HETATM   27  C   UNK     0      -0.407  -7.311  20.242  0.00  0.00     0.048 A 
HETATM   28  C   UNK     0       0.524  -8.434  19.747  0.00  0.00    -0.010 A 
HETATM   29  C   UNK     0       1.135  -8.732  18.366  0.00  0.00     0.030 A 
HETATM   30  C   UNK     0       1.003  -9.523  20.725  0.00  0.00     0.039 A 
HETATM   31  C   UNK     0       0.926  -7.902  17.085  0.00  0.00     0.070 C 
HETATM   32  N   UNK     0       1.992 -10.005  18.490  0.00  0.00    -0.304 N 
HETATM   33  N   UNK     0       1.911 -10.494  19.948  0.00  0.00    -0.304 N 
HETATM   34  HN  UNK     0       2.521 -10.448  17.738  1.00  0.00     0.186 HD
HETATM   35  HN  UNK     0       2.376 -11.317  20.332  1.00  0.00     0.186 HD
HETATM   36  C   UNK     0       0.551  -9.489  22.197  0.00  0.00     0.111 A 
ENDBRANCH  23  25
ENDBRANCH  20  23
ENDBRANCH   1  15
TORSDOF 5
ENDMDL
