MODEL 12
REMARK VINA RESULT:      -7.9      4.043      7.168
REMARK  5 active torsions:
REMARK  status: ('A' for Active; 'I' for Inactive)
REMARK    1  A    between atoms: N_1  and  C_5 
REMARK    2  A    between atoms: N_1  and  C_6 
REMARK    3  A    between atoms: N_3  and  C_9 
REMARK    4  A    between atoms: N_3  and  C_22 
REMARK    5  A    between atoms: O_17  and  C_18 
ROOT
HETATM    1  N   UNK     0      -0.699  -2.861  21.782  0.00  0.00    -0.199 N 
HETATM    2  HN  UNK     0       0.067  -2.813  21.111  1.00  0.00     0.183 HD
ENDROOT
BRANCH   1   3
HETATM    3  C   UNK     0      -1.582  -1.624  22.031  0.00  0.00     0.016 A 
HETATM    4  C   UNK     0      -2.818  -1.369  21.149  0.00  0.00     0.120 A 
HETATM    5  C   UNK     0      -3.700  -0.132  21.398  0.00  0.00     0.087 A 
HETATM    6  C   UNK     0      -3.347   0.851  22.530  0.00  0.00     0.128 A 
HETATM    7  O   UNK     0      -4.937   0.122  20.516  0.00  0.00    -0.350 OA
HETATM    8  C   UNK     0      -2.111   0.597  23.412  0.00  0.00     0.086 A 
HETATM    9  O   UNK     0      -4.230   2.088  22.779  0.00  0.00    -0.344 OA
HETATM   10  C   UNK     0      -1.228  -0.641  23.163  0.00  0.00     0.120 A 
HETATM   11  C   UNK     0      -5.466   2.342  21.897  0.00  0.00     0.202 A 
HETATM   12  C   UNK     0      -5.820   1.359  20.765  0.00  0.00     0.202 A 
BRANCH   8  13
HETATM   13  O   UNK     0      -1.757   1.580  24.544  0.00  0.00    -0.357 OA
HETATM   14  C   UNK     0      -1.193   2.972  24.206  0.00  0.00     0.209 C 
ENDBRANCH   8  13
ENDBRANCH   1   3
BRANCH   1  15
HETATM   15  C   UNK     0      -0.975  -4.170  22.545  0.00  0.00     0.679 A 
HETATM   16  N   UNK     0      -1.737  -4.135  23.884  0.00  0.00    -0.226 N 
HETATM   17  C   UNK     0      -2.012  -5.444  24.647  0.00  0.00     0.145 A 
HETATM   18  HN  UNK     0      -2.059  -3.245  24.264  1.00  0.00     0.177 HD
HETATM   19  C   UNK     0      -1.526  -6.787  24.072  0.00  0.00     0.097 A 
HETATM   20  C   UNK     0      -0.764  -6.822  22.734  0.00  0.00     0.099 A 
HETATM   21  N   UNK     0      -0.489  -5.513  21.971  0.00  0.00    -0.181 N 
HETATM   22  HN  UNK     0       0.016  -5.536  21.085  1.00  0.00     0.185 HD
BRANCH  20  23
HETATM   23  N   UNK     0      -0.278  -8.166  22.160  0.00  0.00    -0.352 N 
HETATM   24  HN  UNK     0      -0.219  -8.986  22.762  1.00  0.00     0.166 HD
BRANCH  23  25
HETATM   25  C   UNK     0       0.119  -8.270  20.676  0.00  0.00    -0.006 A 
HETATM   26  C   UNK     0      -0.753  -7.601  19.597  0.00  0.00     0.057 A 
HETATM   27  C   UNK     0      -0.356  -7.706  18.112  0.00  0.00     0.048 A 
HETATM   28  C   UNK     0       0.913  -8.480  17.707  0.00  0.00    -0.010 A 
HETATM   29  C   UNK     0       1.558  -8.755  16.337  0.00  0.00     0.030 A 
HETATM   30  C   UNK     0       1.785  -9.148  18.786  0.00  0.00     0.039 A 
HETATM   31  C   UNK     0       1.026  -8.275  14.973  0.00  0.00     0.070 C 
HETATM   32  N   UNK     0       2.828  -9.594  16.569  0.00  0.00    -0.304 N 
HETATM   33  N   UNK     0       2.968  -9.837  18.083  0.00  0.00    -0.304 N 
HETATM   34  HN  UNK     0       3.465  -9.930  15.846  1.00  0.00     0.186 HD
HETATM   35  HN  UNK     0       3.714 -10.362  18.540  1.00  0.00     0.186 HD
HETATM   36  C   UNK     0       1.387  -9.044  20.271  0.00  0.00     0.111 A 
ENDBRANCH  23  25
ENDBRANCH  20  23
ENDBRANCH   1  15
TORSDOF 5
ENDMDL
