MODEL 1
REMARK VINA RESULT:      -9.9      0.000      0.000
REMARK  5 active torsions:
REMARK  status: ('A' for Active; 'I' for Inactive)
REMARK    1  A    between atoms: N_1  and  C_5 
REMARK    2  A    between atoms: N_1  and  C_6 
REMARK    3  A    between atoms: N_3  and  C_9 
REMARK    4  A    between atoms: N_3  and  C_22 
REMARK    5  A    between atoms: O_17  and  C_18 
ROOT
HETATM    1  N   UNK     0       0.190  -9.360  21.457  0.00  0.00    -0.199 N 
HETATM    2  HN  UNK     0      -0.096 -10.285  21.776  1.00  0.00     0.183 HD
ENDROOT
BRANCH   1   3
HETATM    3  C   UNK     0       0.032  -8.142  22.387  0.00  0.00     0.016 A 
HETATM    4  C   UNK     0      -0.309  -8.348  23.874  0.00  0.00     0.120 A 
HETATM    5  C   UNK     0      -0.467  -7.131  24.804  0.00  0.00     0.087 A 
HETATM    6  C   UNK     0      -0.283  -5.708  24.246  0.00  0.00     0.128 A 
HETATM    7  O   UNK     0      -0.808  -7.337  26.291  0.00  0.00    -0.350 OA
HETATM    8  C   UNK     0       0.059  -5.501  22.759  0.00  0.00     0.086 A 
HETATM    9  O   UNK     0      -0.441  -4.490  25.176  0.00  0.00    -0.344 OA
HETATM   10  C   UNK     0       0.216  -6.719  21.829  0.00  0.00     0.120 A 
HETATM   11  C   UNK     0      -0.782  -4.696  26.663  0.00  0.00     0.202 A 
HETATM   12  C   UNK     0      -0.966  -6.120  27.221  0.00  0.00     0.202 A 
BRANCH   8  13
HETATM   13  O   UNK     0       0.243  -4.077  22.201  0.00  0.00    -0.357 OA
HETATM   14  C   UNK     0      -0.988  -3.235  21.820  0.00  0.00     0.209 C 
ENDBRANCH   8  13
ENDBRANCH   1   3
BRANCH   1  15
HETATM   15  C   UNK     0       0.779  -9.180  20.045  0.00  0.00     0.679 A 
HETATM   16  N   UNK     0       2.113  -9.855  19.675  0.00  0.00    -0.226 N 
HETATM   17  C   UNK     0       2.701  -9.675  18.264  0.00  0.00     0.145 A 
HETATM   18  HN  UNK     0       2.606 -10.423  20.365  1.00  0.00     0.177 HD
HETATM   19  C   UNK     0       1.957  -8.819  17.223  0.00  0.00     0.097 A 
HETATM   20  C   UNK     0       0.624  -8.143  17.592  0.00  0.00     0.099 A 
HETATM   21  N   UNK     0       0.035  -8.323  19.004  0.00  0.00    -0.181 N 
HETATM   22  HN  UNK     0      -0.848  -7.876  19.249  1.00  0.00     0.185 HD
BRANCH  20  23
HETATM   23  N   UNK     0      -0.121  -7.287  16.551  0.00  0.00    -0.352 N 
HETATM   24  HN  UNK     0      -1.070  -6.965  16.740  1.00  0.00     0.166 HD
BRANCH  23  25
HETATM   25  C   UNK     0       0.568  -6.915  15.225  0.00  0.00    -0.006 A 
HETATM   26  C   UNK     0       1.694  -5.864  15.210  0.00  0.00     0.057 A 
HETATM   27  C   UNK     0       2.382  -5.493  13.883  0.00  0.00     0.048 A 
HETATM   28  C   UNK     0       1.946  -6.173  12.572  0.00  0.00    -0.010 A 
HETATM   29  C   UNK     0       2.432  -6.017  11.120  0.00  0.00     0.030 A 
HETATM   30  C   UNK     0       0.820  -7.224  12.587  0.00  0.00     0.039 A 
HETATM   31  C   UNK     0       3.547  -5.073  10.634  0.00  0.00     0.070 C 
HETATM   32  N   UNK     0       1.607  -6.972  10.237  0.00  0.00    -0.304 N 
HETATM   33  N   UNK     0       0.610  -7.718  11.145  0.00  0.00    -0.304 N 
HETATM   34  HN  UNK     0       1.703  -7.090   9.229  1.00  0.00     0.186 HD
HETATM   35  HN  UNK     0      -0.069  -8.416  10.843  1.00  0.00     0.186 HD
HETATM   36  C   UNK     0       0.131  -7.595  13.914  0.00  0.00     0.111 A 
ENDBRANCH  23  25
ENDBRANCH  20  23
ENDBRANCH   1  15
TORSDOF 5
ENDMDL
