MODEL 19
REMARK VINA RESULT:      -7.2      4.333      8.244
REMARK  5 active torsions:
REMARK  status: ('A' for Active; 'I' for Inactive)
REMARK    1  A    between atoms: N_1  and  C_5 
REMARK    2  A    between atoms: N_1  and  C_6 
REMARK    3  A    between atoms: N_3  and  C_9 
REMARK    4  A    between atoms: N_3  and  C_22 
REMARK    5  A    between atoms: O_17  and  C_18 
ROOT
HETATM    1  N   UNK     0      -4.966  -4.164  23.529  0.00  0.00    -0.199 N 
HETATM    2  HN  UNK     0      -5.847  -4.414  23.081  1.00  0.00     0.183 HD
ENDROOT
BRANCH   1   3
HETATM    3  C   UNK     0      -4.279  -2.829  23.186  0.00  0.00     0.016 A 
HETATM    4  C   UNK     0      -2.770  -2.794  22.885  0.00  0.00     0.120 A 
HETATM    5  C   UNK     0      -2.083  -1.459  22.542  0.00  0.00     0.087 A 
HETATM    6  C   UNK     0      -2.906  -0.159  22.498  0.00  0.00     0.128 A 
HETATM    7  O   UNK     0      -0.573  -1.425  22.241  0.00  0.00    -0.350 OA
HETATM    8  C   UNK     0      -4.417  -0.193  22.798  0.00  0.00     0.086 A 
HETATM    9  O   UNK     0      -2.220   1.176  22.155  0.00  0.00    -0.344 OA
HETATM   10  C   UNK     0      -5.103  -1.528  23.142  0.00  0.00     0.120 A 
HETATM   11  C   UNK     0      -0.710   1.211  21.854  0.00  0.00     0.202 A 
HETATM   12  C   UNK     0       0.113  -0.090  21.898  0.00  0.00     0.202 A 
BRANCH   8  13
HETATM   13  O   UNK     0      -5.240   1.108  22.755  0.00  0.00    -0.357 OA
HETATM   14  C   UNK     0      -5.484   1.820  21.412  0.00  0.00     0.209 C 
ENDBRANCH   8  13
ENDBRANCH   1   3
BRANCH   1  15
HETATM   15  C   UNK     0      -4.322  -5.120  24.550  0.00  0.00     0.679 A 
HETATM   16  N   UNK     0      -5.035  -5.420  25.882  0.00  0.00    -0.226 N 
HETATM   17  C   UNK     0      -4.391  -6.377  26.902  0.00  0.00     0.145 A 
HETATM   18  HN  UNK     0      -5.935  -4.986  26.087  1.00  0.00     0.177 HD
HETATM   19  C   UNK     0      -3.033  -7.033  26.591  0.00  0.00     0.097 A 
HETATM   20  C   UNK     0      -2.320  -6.734  25.260  0.00  0.00     0.099 A 
HETATM   21  N   UNK     0      -2.964  -5.777  24.239  0.00  0.00    -0.181 N 
HETATM   22  HN  UNK     0      -2.491  -5.579  23.358  1.00  0.00     0.185 HD
BRANCH  20  23
HETATM   23  N   UNK     0      -0.962  -7.390  24.949  0.00  0.00    -0.352 N 
HETATM   24  HN  UNK     0      -0.332  -7.645  25.710  1.00  0.00     0.166 HD
BRANCH  23  25
HETATM   25  C   UNK     0      -0.554  -7.663  23.490  0.00  0.00    -0.006 A 
HETATM   26  C   UNK     0      -0.902  -6.643  22.390  0.00  0.00     0.057 A 
HETATM   27  C   UNK     0      -0.494  -6.917  20.930  0.00  0.00     0.048 A 
HETATM   28  C   UNK     0       0.262  -8.210  20.570  0.00  0.00    -0.010 A 
HETATM   29  C   UNK     0       0.793  -8.754  19.232  0.00  0.00     0.030 A 
HETATM   30  C   UNK     0       0.610  -9.229  21.671  0.00  0.00     0.039 A 
HETATM   31  C   UNK     0       0.669  -8.063  17.860  0.00  0.00     0.070 C 
HETATM   32  N   UNK     0       1.469 -10.110  19.505  0.00  0.00    -0.304 N 
HETATM   33  N   UNK     0       1.356 -10.404  21.012  0.00  0.00    -0.304 N 
HETATM   34  HN  UNK     0       1.914 -10.709  18.809  1.00  0.00     0.186 HD
HETATM   35  HN  UNK     0       1.713 -11.231  21.490  1.00  0.00     0.186 HD
HETATM   36  C   UNK     0       0.202  -8.956  23.130  0.00  0.00     0.111 A 
ENDBRANCH  23  25
ENDBRANCH  20  23
ENDBRANCH   1  15
TORSDOF 5
ENDMDL
