MODEL 16
REMARK VINA RESULT:      -7.5      3.941      7.266
REMARK  5 active torsions:
REMARK  status: ('A' for Active; 'I' for Inactive)
REMARK    1  A    between atoms: N_1  and  C_5 
REMARK    2  A    between atoms: N_1  and  C_6 
REMARK    3  A    between atoms: N_3  and  C_9 
REMARK    4  A    between atoms: N_3  and  C_22 
REMARK    5  A    between atoms: O_17  and  C_18 
ROOT
HETATM    1  N   UNK     0      -1.147  -3.811  26.181  0.00  0.00    -0.199 N 
HETATM    2  HN  UNK     0      -0.807  -3.089  26.817  1.00  0.00     0.183 HD
ENDROOT
BRANCH   1   3
HETATM    3  C   UNK     0      -2.258  -3.481  25.166  0.00  0.00     0.016 A 
HETATM    4  C   UNK     0      -3.731  -3.748  25.524  0.00  0.00     0.120 A 
HETATM    5  C   UNK     0      -4.842  -3.419  24.509  0.00  0.00     0.087 A 
HETATM    6  C   UNK     0      -4.479  -2.823  23.137  0.00  0.00     0.128 A 
HETATM    7  O   UNK     0      -6.316  -3.686  24.867  0.00  0.00    -0.350 OA
HETATM    8  C   UNK     0      -3.005  -2.555  22.779  0.00  0.00     0.086 A 
HETATM    9  O   UNK     0      -5.589  -2.493  22.122  0.00  0.00    -0.344 OA
HETATM   10  C   UNK     0      -1.894  -2.885  23.794  0.00  0.00     0.120 A 
HETATM   11  C   UNK     0      -7.063  -2.760  22.479  0.00  0.00     0.202 A 
HETATM   12  C   UNK     0      -7.426  -3.357  23.852  0.00  0.00     0.202 A 
BRANCH   8  13
HETATM   13  O   UNK     0      -2.641  -1.959  21.406  0.00  0.00    -0.357 OA
HETATM   14  C   UNK     0      -1.183  -1.993  20.914  0.00  0.00     0.209 C 
ENDBRANCH   8  13
ENDBRANCH   1   3
BRANCH   1  15
HETATM   15  C   UNK     0      -0.551  -5.229  26.236  0.00  0.00     0.679 A 
HETATM   16  N   UNK     0       0.486  -5.588  27.318  0.00  0.00    -0.226 N 
HETATM   17  C   UNK     0       1.082  -7.006  27.372  0.00  0.00     0.145 A 
HETATM   18  HN  UNK     0       0.777  -4.886  27.998  1.00  0.00     0.177 HD
HETATM   19  C   UNK     0       0.642  -8.067  26.346  0.00  0.00     0.097 A 
HETATM   20  C   UNK     0      -0.393  -7.709  25.265  0.00  0.00     0.099 A 
HETATM   21  N   UNK     0      -0.990  -6.290  25.210  0.00  0.00    -0.181 N 
HETATM   22  HN  UNK     0      -1.676  -6.053  24.494  1.00  0.00     0.185 HD
BRANCH  20  23
HETATM   23  N   UNK     0      -0.833  -8.769  24.238  0.00  0.00    -0.352 N 
HETATM   24  HN  UNK     0      -1.433  -9.542  24.528  1.00  0.00     0.166 HD
BRANCH  23  25
HETATM   25  C   UNK     0      -0.368  -8.664  22.774  0.00  0.00    -0.006 A 
HETATM   26  C   UNK     0      -0.866  -7.506  21.889  0.00  0.00     0.057 A 
HETATM   27  C   UNK     0      -0.400  -7.400  20.425  0.00  0.00     0.048 A 
HETATM   28  C   UNK     0       0.564  -8.453  19.846  0.00  0.00    -0.010 A 
HETATM   29  C   UNK     0       1.195  -8.615  18.451  0.00  0.00     0.030 A 
HETATM   30  C   UNK     0       1.062  -9.611  20.731  0.00  0.00     0.039 A 
HETATM   31  C   UNK     0       0.976  -7.682  17.244  0.00  0.00     0.070 C 
HETATM   32  N   UNK     0       2.083  -9.873  18.473  0.00  0.00    -0.304 N 
HETATM   33  N   UNK     0       2.000 -10.488  19.883  0.00  0.00    -0.304 N 
HETATM   34  HN  UNK     0       2.629 -10.235  17.692  1.00  0.00     0.186 HD
HETATM   35  HN  UNK     0       2.483 -11.330  20.199  1.00  0.00     0.186 HD
HETATM   36  C   UNK     0       0.596  -9.716  22.195  0.00  0.00     0.111 A 
ENDBRANCH  23  25
ENDBRANCH  20  23
ENDBRANCH   1  15
TORSDOF 5
ENDMDL
