MODEL 20
REMARK VINA RESULT:      -7.1      5.857     10.384
REMARK  5 active torsions:
REMARK  status: ('A' for Active; 'I' for Inactive)
REMARK    1  A    between atoms: N_1  and  C_5 
REMARK    2  A    between atoms: N_1  and  C_6 
REMARK    3  A    between atoms: N_3  and  C_9 
REMARK    4  A    between atoms: N_3  and  C_22 
REMARK    5  A    between atoms: O_17  and  C_18 
ROOT
HETATM    1  N   UNK     0      -2.555  -6.465  24.384  0.00  0.00    -0.199 N 
HETATM    2  HN  UNK     0      -3.302  -6.872  24.946  1.00  0.00     0.183 HD
ENDROOT
BRANCH   1   3
HETATM    3  C   UNK     0      -1.584  -7.380  23.614  0.00  0.00     0.016 A 
HETATM    4  C   UNK     0      -1.208  -7.053  22.158  0.00  0.00     0.120 A 
HETATM    5  C   UNK     0      -0.237  -7.968  21.388  0.00  0.00     0.087 A 
HETATM    6  C   UNK     0       0.357  -9.211  22.075  0.00  0.00     0.128 A 
HETATM    7  O   UNK     0       0.139  -7.640  19.931  0.00  0.00    -0.350 OA
HETATM    8  C   UNK     0      -0.020  -9.539  23.532  0.00  0.00     0.086 A 
HETATM    9  O   UNK     0       1.327 -10.126  21.306  0.00  0.00    -0.344 OA
HETATM   10  C   UNK     0      -0.990  -8.624  24.302  0.00  0.00     0.120 A 
HETATM   11  C   UNK     0       1.703  -9.799  19.849  0.00  0.00     0.202 A 
HETATM   12  C   UNK     0       1.109  -8.555  19.162  0.00  0.00     0.202 A 
BRANCH   8  13
HETATM   13  O   UNK     0       0.574 -10.783  24.220  0.00  0.00    -0.357 OA
HETATM   14  C   UNK     0      -0.196 -11.474  25.359  0.00  0.00     0.209 C 
ENDBRANCH   8  13
ENDBRANCH   1   3
BRANCH   1  15
HETATM   15  C   UNK     0      -2.396  -4.935  24.304  0.00  0.00     0.679 A 
HETATM   16  N   UNK     0      -1.708  -4.171  25.451  0.00  0.00    -0.226 N 
HETATM   17  C   UNK     0      -1.550  -2.642  25.371  0.00  0.00     0.145 A 
HETATM   18  HN  UNK     0      -1.357  -4.679  26.263  1.00  0.00     0.177 HD
HETATM   19  C   UNK     0      -2.080  -1.876  24.145  0.00  0.00     0.097 A 
HETATM   20  C   UNK     0      -2.768  -2.639  22.999  0.00  0.00     0.099 A 
HETATM   21  N   UNK     0      -2.927  -4.169  23.078  0.00  0.00    -0.181 N 
HETATM   22  HN  UNK     0      -3.382  -4.674  22.319  1.00  0.00     0.185 HD
BRANCH  20  23
HETATM   23  N   UNK     0      -3.298  -1.873  21.772  0.00  0.00    -0.352 N 
HETATM   24  HN  UNK     0      -2.893  -2.040  20.852  1.00  0.00     0.166 HD
BRANCH  23  25
HETATM   25  C   UNK     0      -4.441  -0.854  21.936  0.00  0.00    -0.006 A 
HETATM   26  C   UNK     0      -5.774  -1.287  22.574  0.00  0.00     0.057 A 
HETATM   27  C   UNK     0      -6.917  -0.267  22.737  0.00  0.00     0.048 A 
HETATM   28  C   UNK     0      -6.726   1.186  22.263  0.00  0.00    -0.010 A 
HETATM   29  C   UNK     0      -7.661   2.408  22.289  0.00  0.00     0.030 A 
HETATM   30  C   UNK     0      -5.393   1.619  21.624  0.00  0.00     0.039 A 
HETATM   31  C   UNK     0      -9.099   2.438  22.840  0.00  0.00     0.070 C 
HETATM   32  N   UNK     0      -6.906   3.598  21.667  0.00  0.00    -0.304 N 
HETATM   33  N   UNK     0      -5.504   3.109  21.256  0.00  0.00    -0.304 N 
HETATM   34  HN  UNK     0      -7.270   4.543  21.548  1.00  0.00     0.186 HD
HETATM   35  HN  UNK     0      -4.777   3.674  20.817  1.00  0.00     0.186 HD
HETATM   36  C   UNK     0      -4.251   0.599  21.461  0.00  0.00     0.111 A 
ENDBRANCH  23  25
ENDBRANCH  20  23
ENDBRANCH   1  15
TORSDOF 5
ENDMDL
