MODEL 10
REMARK VINA RESULT:      -8.1      9.109     14.640
REMARK  5 active torsions:
REMARK  status: ('A' for Active; 'I' for Inactive)
REMARK    1  A    between atoms: N_1  and  C_5 
REMARK    2  A    between atoms: N_1  and  C_6 
REMARK    3  A    between atoms: N_3  and  C_9 
REMARK    4  A    between atoms: N_3  and  C_22 
REMARK    5  A    between atoms: O_17  and  C_18 
ROOT
HETATM    1  N   UNK     0       0.961  -1.191   8.326  0.00  0.00    -0.199 N 
HETATM    2  HN  UNK     0       0.267  -1.472   9.018  1.00  0.00     0.183 HD
ENDROOT
BRANCH   1   3
HETATM    3  C   UNK     0       0.634  -0.077   7.316  0.00  0.00     0.016 A 
HETATM    4  C   UNK     0      -0.796   0.488   7.228  0.00  0.00     0.120 A 
HETATM    5  C   UNK     0      -1.123   1.603   6.218  0.00  0.00     0.087 A 
HETATM    6  C   UNK     0      -0.021   2.153   5.294  0.00  0.00     0.128 A 
HETATM    7  O   UNK     0      -2.554   2.168   6.131  0.00  0.00    -0.350 OA
HETATM    8  C   UNK     0       1.409   1.588   5.381  0.00  0.00     0.086 A 
HETATM    9  O   UNK     0      -0.349   3.268   4.284  0.00  0.00    -0.344 OA
HETATM   10  C   UNK     0       1.737   0.474   6.392  0.00  0.00     0.120 A 
HETATM   11  C   UNK     0      -1.778   3.833   4.196  0.00  0.00     0.202 A 
HETATM   12  C   UNK     0      -2.881   3.282   5.120  0.00  0.00     0.202 A 
BRANCH   8  13
HETATM   13  O   UNK     0       2.512   2.139   4.458  0.00  0.00    -0.357 OA
HETATM   14  C   UNK     0       3.968   2.205   4.952  0.00  0.00     0.209 C 
ENDBRANCH   8  13
ENDBRANCH   1   3
BRANCH   1  15
HETATM   15  C   UNK     0       2.337  -1.882   8.292  0.00  0.00     0.679 A 
HETATM   16  N   UNK     0       3.321  -1.583   7.145  0.00  0.00    -0.226 N 
HETATM   17  C   UNK     0       4.696  -2.274   7.111  0.00  0.00     0.145 A 
HETATM   18  HN  UNK     0       3.061  -0.928   6.408  1.00  0.00     0.177 HD
HETATM   19  C   UNK     0       5.089  -3.263   8.224  0.00  0.00     0.097 A 
HETATM   20  C   UNK     0       4.107  -3.562   9.371  0.00  0.00     0.099 A 
HETATM   21  N   UNK     0       2.730  -2.871   9.405  0.00  0.00    -0.181 N 
HETATM   22  HN  UNK     0       2.080  -3.069  10.165  1.00  0.00     0.185 HD
BRANCH  20  23
HETATM   23  N   UNK     0       4.500  -4.551  10.483  0.00  0.00    -0.352 N 
HETATM   24  HN  UNK     0       5.481  -4.678  10.730  1.00  0.00     0.166 HD
BRANCH  23  25
HETATM   25  C   UNK     0       3.411  -5.349  11.224  0.00  0.00    -0.006 A 
HETATM   26  C   UNK     0       2.666  -6.487  10.504  0.00  0.00     0.057 A 
HETATM   27  C   UNK     0       1.577  -7.285  11.245  0.00  0.00     0.048 A 
HETATM   28  C   UNK     0       1.234  -6.944  12.708  0.00  0.00    -0.010 A 
HETATM   29  C   UNK     0       0.217  -7.547  13.694  0.00  0.00     0.030 A 
HETATM   30  C   UNK     0       1.979  -5.806  13.428  0.00  0.00     0.039 A 
HETATM   31  C   UNK     0      -0.748  -8.712  13.402  0.00  0.00     0.070 C 
HETATM   32  N   UNK     0       0.334  -6.781  15.025  0.00  0.00    -0.304 N 
HETATM   33  N   UNK     0       1.424  -5.705  14.860  0.00  0.00    -0.304 N 
HETATM   34  HN  UNK     0      -0.213  -6.956  15.867  1.00  0.00     0.186 HD
HETATM   35  HN  UNK     0       1.724  -5.042  15.575  1.00  0.00     0.186 HD
HETATM   36  C   UNK     0       3.068  -5.008  12.687  0.00  0.00     0.111 A 
ENDBRANCH  23  25
ENDBRANCH  20  23
ENDBRANCH   1  15
TORSDOF 5
ENDMDL
