MODEL 6
REMARK VINA RESULT:      -8.9      3.329      6.312
REMARK  5 active torsions:
REMARK  status: ('A' for Active; 'I' for Inactive)
REMARK    1  A    between atoms: N_1  and  C_5 
REMARK    2  A    between atoms: N_1  and  C_6 
REMARK    3  A    between atoms: N_3  and  C_9 
REMARK    4  A    between atoms: N_3  and  C_22 
REMARK    5  A    between atoms: O_17  and  C_18 
ROOT
HETATM    1  N   UNK     0      -2.783  -4.948  23.690  0.00  0.00    -0.199 N 
HETATM    2  HN  UNK     0      -3.777  -5.154  23.594  1.00  0.00     0.183 HD
ENDROOT
BRANCH   1   3
HETATM    3  C   UNK     0      -2.254  -3.537  23.372  0.00  0.00     0.016 A 
HETATM    4  C   UNK     0      -1.961  -2.548  24.514  0.00  0.00     0.120 A 
HETATM    5  C   UNK     0      -1.432  -1.137  24.196  0.00  0.00     0.087 A 
HETATM    6  C   UNK     0      -1.197  -0.715  22.734  0.00  0.00     0.128 A 
HETATM    7  O   UNK     0      -1.139  -0.148  25.340  0.00  0.00    -0.350 OA
HETATM    8  C   UNK     0      -1.490  -1.704  21.590  0.00  0.00     0.086 A 
HETATM    9  O   UNK     0      -0.668   0.696  22.415  0.00  0.00    -0.344 OA
HETATM   10  C   UNK     0      -2.019  -3.115  21.909  0.00  0.00     0.120 A 
HETATM   11  C   UNK     0      -0.375   1.684  23.558  0.00  0.00     0.202 A 
HETATM   12  C   UNK     0      -0.610   1.262  25.021  0.00  0.00     0.202 A 
BRANCH   8  13
HETATM   13  O   UNK     0      -1.255  -1.282  20.128  0.00  0.00    -0.357 OA
HETATM   14  C   UNK     0      -2.454  -0.966  19.216  0.00  0.00     0.209 C 
ENDBRANCH   8  13
ENDBRANCH   1   3
BRANCH   1  15
HETATM   15  C   UNK     0      -1.810  -6.048  24.154  0.00  0.00     0.679 A 
HETATM   16  N   UNK     0      -1.237  -6.017  25.583  0.00  0.00    -0.226 N 
HETATM   17  C   UNK     0      -0.265  -7.117  26.047  0.00  0.00     0.145 A 
HETATM   18  HN  UNK     0      -1.502  -5.268  26.223  1.00  0.00     0.177 HD
HETATM   19  C   UNK     0       0.135  -8.248  25.081  0.00  0.00     0.097 A 
HETATM   20  C   UNK     0      -0.437  -8.279  23.652  0.00  0.00     0.099 A 
HETATM   21  N   UNK     0      -1.410  -7.179  23.188  0.00  0.00    -0.181 N 
HETATM   22  HN  UNK     0      -1.789  -7.200  22.242  1.00  0.00     0.185 HD
BRANCH  20  23
HETATM   23  N   UNK     0      -0.037  -9.411  22.687  0.00  0.00    -0.352 N 
HETATM   24  HN  UNK     0       0.034 -10.370  23.026  1.00  0.00     0.166 HD
BRANCH  23  25
HETATM   25  C   UNK     0       0.256  -9.094  21.209  0.00  0.00    -0.006 A 
HETATM   26  C   UNK     0      -0.573  -8.027  20.471  0.00  0.00     0.057 A 
HETATM   27  C   UNK     0      -0.280  -7.710  18.992  0.00  0.00     0.048 A 
HETATM   28  C   UNK     0       0.843  -8.460  18.252  0.00  0.00    -0.010 A 
HETATM   29  C   UNK     0       1.364  -8.369  16.806  0.00  0.00     0.030 A 
HETATM   30  C   UNK     0       1.673  -9.528  18.990  0.00  0.00     0.039 A 
HETATM   31  C   UNK     0       0.828  -7.431  15.708  0.00  0.00     0.070 C 
HETATM   32  N   UNK     0       2.516  -9.379  16.651  0.00  0.00    -0.304 N 
HETATM   33  N   UNK     0       2.706 -10.095  18.001  0.00  0.00    -0.304 N 
HETATM   34  HN  UNK     0       3.057  -9.545  15.802  1.00  0.00     0.186 HD
HETATM   35  HN  UNK     0       3.396 -10.819  18.204  1.00  0.00     0.186 HD
HETATM   36  C   UNK     0       1.379  -9.844  20.469  0.00  0.00     0.111 A 
ENDBRANCH  23  25
ENDBRANCH  20  23
ENDBRANCH   1  15
TORSDOF 5
ENDMDL
