MODEL 11
REMARK VINA RESULT:      -8.0      3.749      6.705
REMARK  5 active torsions:
REMARK  status: ('A' for Active; 'I' for Inactive)
REMARK    1  A    between atoms: N_1  and  C_5 
REMARK    2  A    between atoms: N_1  and  C_6 
REMARK    3  A    between atoms: N_3  and  C_9 
REMARK    4  A    between atoms: N_3  and  C_22 
REMARK    5  A    between atoms: O_17  and  C_18 
ROOT
HETATM    1  N   UNK     0      -0.545  -3.364  22.161  0.00  0.00    -0.199 N 
HETATM    2  HN  UNK     0       0.299  -3.148  21.630  1.00  0.00     0.183 HD
ENDROOT
BRANCH   1   3
HETATM    3  C   UNK     0      -1.678  -2.326  22.260  0.00  0.00     0.016 A 
HETATM    4  C   UNK     0      -1.424  -0.972  22.946  0.00  0.00     0.120 A 
HETATM    5  C   UNK     0      -2.558   0.066  23.045  0.00  0.00     0.087 A 
HETATM    6  C   UNK     0      -3.946  -0.251  22.459  0.00  0.00     0.128 A 
HETATM    7  O   UNK     0      -2.304   1.421  23.731  0.00  0.00    -0.350 OA
HETATM    8  C   UNK     0      -4.200  -1.606  21.773  0.00  0.00     0.086 A 
HETATM    9  O   UNK     0      -5.079   0.786  22.558  0.00  0.00    -0.344 OA
HETATM   10  C   UNK     0      -3.066  -2.644  21.673  0.00  0.00     0.120 A 
HETATM   11  C   UNK     0      -4.825   2.141  23.244  0.00  0.00     0.202 A 
HETATM   12  C   UNK     0      -3.437   2.459  23.831  0.00  0.00     0.202 A 
BRANCH   8  13
HETATM   13  O   UNK     0      -5.588  -1.924  21.186  0.00  0.00    -0.357 OA
HETATM   14  C   UNK     0      -6.768  -2.236  22.124  0.00  0.00     0.209 C 
ENDBRANCH   8  13
ENDBRANCH   1   3
BRANCH   1  15
HETATM   15  C   UNK     0      -0.685  -4.727  22.864  0.00  0.00     0.679 A 
HETATM   16  N   UNK     0      -1.130  -4.792  24.337  0.00  0.00    -0.226 N 
HETATM   17  C   UNK     0      -1.270  -6.155  25.039  0.00  0.00     0.145 A 
HETATM   18  HN  UNK     0      -1.331  -3.932  24.847  1.00  0.00     0.177 HD
HETATM   19  C   UNK     0      -0.965  -7.453  24.269  0.00  0.00     0.097 A 
HETATM   20  C   UNK     0      -0.521  -7.389  22.796  0.00  0.00     0.099 A 
HETATM   21  N   UNK     0      -0.380  -6.025  22.093  0.00  0.00    -0.181 N 
HETATM   22  HN  UNK     0      -0.086  -5.983  21.118  1.00  0.00     0.185 HD
BRANCH  20  23
HETATM   23  N   UNK     0      -0.216  -8.687  22.026  0.00  0.00    -0.352 N 
HETATM   24  HN  UNK     0      -0.302  -9.589  22.493  1.00  0.00     0.166 HD
BRANCH  23  25
HETATM   25  C   UNK     0       0.218  -8.623  20.550  0.00  0.00    -0.006 A 
HETATM   26  C   UNK     0      -0.596  -7.789  19.543  0.00  0.00     0.057 A 
HETATM   27  C   UNK     0      -0.162  -7.726  18.067  0.00  0.00     0.048 A 
HETATM   28  C   UNK     0       1.087  -8.496  17.598  0.00  0.00    -0.010 A 
HETATM   29  C   UNK     0       1.759  -8.625  16.219  0.00  0.00     0.030 A 
HETATM   30  C   UNK     0       1.901  -9.329  18.605  0.00  0.00     0.039 A 
HETATM   31  C   UNK     0       1.285  -7.958  14.914  0.00  0.00     0.070 C 
HETATM   32  N   UNK     0       2.989  -9.539  16.373  0.00  0.00    -0.304 N 
HETATM   33  N   UNK     0       3.076  -9.974  17.848  0.00  0.00    -0.304 N 
HETATM   34  HN  UNK     0       3.632  -9.809  15.629  1.00  0.00     0.186 HD
HETATM   35  HN  UNK     0       3.788 -10.583  18.253  1.00  0.00     0.186 HD
HETATM   36  C   UNK     0       1.467  -9.393  20.081  0.00  0.00     0.111 A 
ENDBRANCH  23  25
ENDBRANCH  20  23
ENDBRANCH   1  15
TORSDOF 5
ENDMDL
