MODEL 8
REMARK VINA RESULT:      -8.2      3.562      6.665
REMARK  5 active torsions:
REMARK  status: ('A' for Active; 'I' for Inactive)
REMARK    1  A    between atoms: N_1  and  C_5 
REMARK    2  A    between atoms: N_1  and  C_6 
REMARK    3  A    between atoms: N_3  and  C_9 
REMARK    4  A    between atoms: N_3  and  C_22 
REMARK    5  A    between atoms: O_17  and  C_18 
ROOT
HETATM    1  N   UNK     0      -1.520  -4.159  24.555  0.00  0.00    -0.199 N 
HETATM    2  HN  UNK     0      -0.977  -3.870  25.368  1.00  0.00     0.183 HD
ENDROOT
BRANCH   1   3
HETATM    3  C   UNK     0      -2.123  -3.098  23.614  0.00  0.00     0.016 A 
HETATM    4  C   UNK     0      -3.644  -3.045  23.388  0.00  0.00     0.120 A 
HETATM    5  C   UNK     0      -4.247  -1.984  22.448  0.00  0.00     0.087 A 
HETATM    6  C   UNK     0      -3.327  -0.977  21.734  0.00  0.00     0.128 A 
HETATM    7  O   UNK     0      -5.770  -1.931  22.222  0.00  0.00    -0.350 OA
HETATM    8  C   UNK     0      -1.805  -1.030  21.960  0.00  0.00     0.086 A 
HETATM    9  O   UNK     0      -3.930   0.083  20.793  0.00  0.00    -0.344 OA
HETATM   10  C   UNK     0      -1.202  -2.091  22.900  0.00  0.00     0.120 A 
HETATM   11  C   UNK     0      -5.452   0.136  20.567  0.00  0.00     0.202 A 
HETATM   12  C   UNK     0      -6.372  -0.871  21.282  0.00  0.00     0.202 A 
BRANCH   8  13
HETATM   13  O   UNK     0      -0.884  -0.023  21.245  0.00  0.00    -0.357 OA
HETATM   14  C   UNK     0      -0.643   1.368  21.859  0.00  0.00     0.209 C 
ENDBRANCH   8  13
ENDBRANCH   1   3
BRANCH   1  15
HETATM   15  C   UNK     0      -1.738  -5.656  24.267  0.00  0.00     0.679 A 
HETATM   16  N   UNK     0      -3.066  -6.330  24.659  0.00  0.00    -0.226 N 
HETATM   17  C   UNK     0      -3.284  -7.827  24.371  0.00  0.00     0.145 A 
HETATM   18  HN  UNK     0      -3.802  -5.785  25.109  1.00  0.00     0.177 HD
HETATM   19  C   UNK     0      -2.174  -8.650  23.691  0.00  0.00     0.097 A 
HETATM   20  C   UNK     0      -0.846  -7.976  23.299  0.00  0.00     0.099 A 
HETATM   21  N   UNK     0      -0.628  -6.479  23.587  0.00  0.00    -0.181 N 
HETATM   22  HN  UNK     0       0.251  -6.033  23.328  1.00  0.00     0.185 HD
BRANCH  20  23
HETATM   23  N   UNK     0       0.264  -8.799  22.620  0.00  0.00    -0.352 N 
HETATM   24  HN  UNK     0       0.855  -9.416  23.176  1.00  0.00     0.166 HD
BRANCH  23  25
HETATM   25  C   UNK     0       0.483  -8.690  21.100  0.00  0.00    -0.006 A 
HETATM   26  C   UNK     0      -0.474  -7.840  20.243  0.00  0.00     0.057 A 
HETATM   27  C   UNK     0      -0.255  -7.731  18.722  0.00  0.00     0.048 A 
HETATM   28  C   UNK     0       0.921  -8.472  18.058  0.00  0.00    -0.010 A 
HETATM   29  C   UNK     0       1.391  -8.556  16.595  0.00  0.00     0.030 A 
HETATM   30  C   UNK     0       1.878  -9.321  18.915  0.00  0.00     0.039 A 
HETATM   31  C   UNK     0       0.729  -7.860  15.390  0.00  0.00     0.070 C 
HETATM   32  N   UNK     0       2.638  -9.458  16.547  0.00  0.00    -0.304 N 
HETATM   33  N   UNK     0       2.939  -9.931  17.981  0.00  0.00    -0.304 N 
HETATM   34  HN  UNK     0       3.171  -9.699  15.711  1.00  0.00     0.186 HD
HETATM   35  HN  UNK     0       3.707 -10.540  18.263  1.00  0.00     0.186 HD
HETATM   36  C   UNK     0       1.659  -9.430  20.436  0.00  0.00     0.111 A 
ENDBRANCH  23  25
ENDBRANCH  20  23
ENDBRANCH   1  15
TORSDOF 5
ENDMDL
