MODEL 7
REMARK VINA RESULT:      -8.7      3.348      6.155
REMARK  5 active torsions:
REMARK  status: ('A' for Active; 'I' for Inactive)
REMARK    1  A    between atoms: N_1  and  C_5 
REMARK    2  A    between atoms: N_1  and  C_6 
REMARK    3  A    between atoms: N_3  and  C_9 
REMARK    4  A    between atoms: N_3  and  C_22 
REMARK    5  A    between atoms: O_17  and  C_18 
ROOT
HETATM    1  N   UNK     0      -0.812  -5.116  24.535  0.00  0.00    -0.199 N 
HETATM    2  HN  UNK     0      -0.087  -4.640  25.070  1.00  0.00     0.183 HD
ENDROOT
BRANCH   1   3
HETATM    3  C   UNK     0      -1.841  -4.296  23.734  0.00  0.00     0.016 A 
HETATM    4  C   UNK     0      -3.251  -4.061  24.305  0.00  0.00     0.120 A 
HETATM    5  C   UNK     0      -4.280  -3.241  23.505  0.00  0.00     0.087 A 
HETATM    6  C   UNK     0      -3.899  -2.657  22.133  0.00  0.00     0.128 A 
HETATM    7  O   UNK     0      -5.690  -3.006  24.077  0.00  0.00    -0.350 OA
HETATM    8  C   UNK     0      -2.488  -2.892  21.560  0.00  0.00     0.086 A 
HETATM    9  O   UNK     0      -4.927  -1.837  21.332  0.00  0.00    -0.344 OA
HETATM   10  C   UNK     0      -1.459  -3.712  22.361  0.00  0.00     0.120 A 
HETATM   11  C   UNK     0      -6.337  -1.601  21.903  0.00  0.00     0.202 A 
HETATM   12  C   UNK     0      -6.719  -2.186  23.276  0.00  0.00     0.202 A 
BRANCH   8  13
HETATM   13  O   UNK     0      -2.106  -2.307  20.187  0.00  0.00    -0.357 OA
HETATM   14  C   UNK     0      -1.663  -0.838  20.073  0.00  0.00     0.209 C 
ENDBRANCH   8  13
ENDBRANCH   1   3
BRANCH   1  15
HETATM   15  C   UNK     0      -0.879  -6.655  24.526  0.00  0.00     0.679 A 
HETATM   16  N   UNK     0      -1.816  -7.391  25.502  0.00  0.00    -0.226 N 
HETATM   17  C   UNK     0      -1.882  -8.929  25.493  0.00  0.00     0.145 A 
HETATM   18  HN  UNK     0      -2.392  -6.859  26.155  1.00  0.00     0.177 HD
HETATM   19  C   UNK     0      -1.012  -9.732  24.508  0.00  0.00     0.097 A 
HETATM   20  C   UNK     0      -0.076  -8.996  23.532  0.00  0.00     0.099 A 
HETATM   21  N   UNK     0      -0.009  -7.458  23.541  0.00  0.00    -0.181 N 
HETATM   22  HN  UNK     0       0.611  -6.971  22.894  1.00  0.00     0.185 HD
BRANCH  20  23
HETATM   23  N   UNK     0       0.794  -9.799  22.547  0.00  0.00    -0.352 N 
HETATM   24  HN  UNK     0       1.321 -10.608  22.875  1.00  0.00     0.166 HD
BRANCH  23  25
HETATM   25  C   UNK     0       0.867  -9.381  21.067  0.00  0.00    -0.006 A 
HETATM   26  C   UNK     0      -0.139  -8.360  20.505  0.00  0.00     0.057 A 
HETATM   27  C   UNK     0      -0.065  -7.942  19.024  0.00  0.00     0.048 A 
HETATM   28  C   UNK     0       1.015  -8.545  18.106  0.00  0.00    -0.010 A 
HETATM   29  C   UNK     0       1.337  -8.332  16.616  0.00  0.00     0.030 A 
HETATM   30  C   UNK     0       2.021  -9.567  18.669  0.00  0.00     0.039 A 
HETATM   31  C   UNK     0       0.586  -7.393  15.653  0.00  0.00     0.070 C 
HETATM   32  N   UNK     0       2.542  -9.221  16.258  0.00  0.00    -0.304 N 
HETATM   33  N   UNK     0       2.964  -9.984  17.526  0.00  0.00    -0.304 N 
HETATM   34  HN  UNK     0       2.983  -9.292  15.341  1.00  0.00     0.186 HD
HETATM   35  HN  UNK     0       3.734 -10.650  17.598  1.00  0.00     0.186 HD
HETATM   36  C   UNK     0       1.947  -9.985  20.149  0.00  0.00     0.111 A 
ENDBRANCH  23  25
ENDBRANCH  20  23
ENDBRANCH   1  15
TORSDOF 5
ENDMDL
