MODEL 13
REMARK VINA RESULT:      -7.8      2.691      5.174
REMARK  5 active torsions:
REMARK  status: ('A' for Active; 'I' for Inactive)
REMARK    1  A    between atoms: N_1  and  C_5 
REMARK    2  A    between atoms: N_1  and  C_6 
REMARK    3  A    between atoms: N_3  and  C_9 
REMARK    4  A    between atoms: N_3  and  C_22 
REMARK    5  A    between atoms: O_17  and  C_18 
ROOT
HETATM    1  N   UNK     0       0.137  -4.960  22.059  0.00  0.00    -0.199 N 
HETATM    2  HN  UNK     0       0.996  -4.462  21.826  1.00  0.00     0.183 HD
ENDROOT
BRANCH   1   3
HETATM    3  C   UNK     0      -1.173  -4.178  22.267  0.00  0.00     0.016 A 
HETATM    4  C   UNK     0      -1.805  -3.407  21.093  0.00  0.00     0.120 A 
HETATM    5  C   UNK     0      -3.115  -2.625  21.302  0.00  0.00     0.087 A 
HETATM    6  C   UNK     0      -3.793  -2.614  22.684  0.00  0.00     0.128 A 
HETATM    7  O   UNK     0      -3.747  -1.855  20.127  0.00  0.00    -0.350 OA
HETATM    8  C   UNK     0      -3.162  -3.384  23.858  0.00  0.00     0.086 A 
HETATM    9  O   UNK     0      -5.104  -1.832  22.892  0.00  0.00    -0.344 OA
HETATM   10  C   UNK     0      -1.851  -4.166  23.650  0.00  0.00     0.120 A 
HETATM   11  C   UNK     0      -5.736  -1.061  21.718  0.00  0.00     0.202 A 
HETATM   12  C   UNK     0      -5.057  -1.073  20.336  0.00  0.00     0.202 A 
BRANCH   8  13
HETATM   13  O   UNK     0      -3.840  -3.373  25.241  0.00  0.00    -0.357 OA
HETATM   14  C   UNK     0      -3.064  -3.848  26.483  0.00  0.00     0.209 C 
ENDBRANCH   8  13
ENDBRANCH   1   3
BRANCH   1  15
HETATM   15  C   UNK     0       0.150  -6.493  22.202  0.00  0.00     0.679 A 
HETATM   16  N   UNK     0      -0.282  -7.146  23.529  0.00  0.00    -0.226 N 
HETATM   17  C   UNK     0      -0.269  -8.679  23.672  0.00  0.00     0.145 A 
HETATM   18  HN  UNK     0      -0.576  -6.563  24.312  1.00  0.00     0.177 HD
HETATM   19  C   UNK     0       0.175  -9.559  22.489  0.00  0.00     0.097 A 
HETATM   20  C   UNK     0       0.606  -8.907  21.163  0.00  0.00     0.099 A 
HETATM   21  N   UNK     0       0.594  -7.374  21.019  0.00  0.00    -0.181 N 
HETATM   22  HN  UNK     0       0.879  -6.942  20.141  1.00  0.00     0.185 HD
BRANCH  20  23
HETATM   23  N   UNK     0       1.050  -9.788  19.980  0.00  0.00    -0.352 N 
HETATM   24  HN  UNK     0       1.175 -10.791  20.110  1.00  0.00     0.166 HD
BRANCH  23  25
HETATM   25  C   UNK     0       1.305  -9.153  18.601  0.00  0.00    -0.006 A 
HETATM   26  C   UNK     0       2.555  -9.545  17.792  0.00  0.00     0.057 A 
HETATM   27  C   UNK     0       2.810  -8.909  16.412  0.00  0.00     0.048 A 
HETATM   28  C   UNK     0       1.814  -7.882  15.841  0.00  0.00    -0.010 A 
HETATM   29  C   UNK     0       1.793  -7.091  14.520  0.00  0.00     0.030 A 
HETATM   30  C   UNK     0       0.563  -7.491  16.650  0.00  0.00     0.039 A 
HETATM   31  C   UNK     0       2.851  -7.167  13.403  0.00  0.00     0.070 C 
HETATM   32  N   UNK     0       0.530  -6.211  14.513  0.00  0.00    -0.304 N 
HETATM   33  N   UNK     0      -0.230  -6.457  15.830  0.00  0.00    -0.304 N 
HETATM   34  HN  UNK     0       0.247  -5.575  13.768  1.00  0.00     0.186 HD
HETATM   35  HN  UNK     0      -1.105  -6.015  16.109  1.00  0.00     0.186 HD
HETATM   36  C   UNK     0       0.309  -8.126  18.030  0.00  0.00     0.111 A 
ENDBRANCH  23  25
ENDBRANCH  20  23
ENDBRANCH   1  15
TORSDOF 5
ENDMDL
