MODEL 2
REMARK VINA RESULT:     -12.0      1.704      2.184
REMARK  6 active torsions:
REMARK  status: ('A' for Active; 'I' for Inactive)
REMARK    1  A    between atoms: C2_2  and  N12_12 
REMARK       I    between atoms: C13_13  and  N12_12 
REMARK       I    between atoms: C13_13  and  N14_14 
REMARK    2  A    between atoms: C16_18  and  N14_14 
REMARK    3  A    between atoms: C19_21  and  O22_24 
REMARK    4  A    between atoms: O22_24  and  C23_25 
REMARK    5  A    between atoms: C27_29  and  C29_32 
REMARK       I    between atoms: N30_33  and  C29_32 
REMARK    6  A    between atoms: C6_6  and  C7_8 
ROOT
HETATM    1  C1  BAX A1201       3.670  -2.598   8.669  1.00 31.56     0.047 A 
HETATM    2  C2  BAX A1201       3.870  -3.639   9.566  1.00 31.50     0.037 A 
HETATM    3  C3  BAX A1201       5.195  -3.982   9.887  1.00 37.94     0.031 A 
HETATM    4  C4  BAX A1201       6.310  -3.345   9.331  1.00 35.50     0.027 A 
HETATM    5  C5  BAX A1201       6.094  -2.293   8.422  1.00 33.51     0.049 A 
HETATM    6  C6  BAX A1201       4.715  -1.916   8.097  1.00 27.50     0.071 A 
HETATM    7 CL11 BAX A1201       7.448  -1.431   7.659  1.00 50.98    -0.083 Cl
ENDROOT
BRANCH   6   8
HETATM    8  C7  BAX A1201       4.433  -0.791   7.114  1.00 36.87     0.419 C 
HETATM    9  F8  BAX A1201       4.849   0.353   7.567  1.00 39.65    -0.166 F 
HETATM   10  F9  BAX A1201       4.969  -0.977   5.963  1.00 37.84    -0.166 F 
HETATM   11  F10 BAX A1201       3.158  -0.756   6.886  1.00 36.35    -0.166 F 
ENDBRANCH   6   8
BRANCH   2  12
HETATM   12  N12 BAX A1201       2.831  -4.395  10.101  1.00 26.26    -0.309 N 
HETATM   13  C13 BAX A1201       2.764  -4.907  11.362  1.00 27.98     0.325 C 
HETATM   14  N14 BAX A1201       1.649  -5.620  11.605  1.00 25.84    -0.309 N 
HETATM   15  O15 BAX A1201       3.656  -4.731  12.160  1.00 28.48    -0.247 OA
HETATM   16  H14 BAX A1201       1.078  -5.887  10.802  1.00  0.00     0.170 HD
HETATM   17  H12 BAX A1201       2.039  -4.585   9.486  1.00  0.00     0.170 HD
BRANCH  14  18
HETATM   18  C16 BAX A1201       1.220  -6.015  12.839  1.00 26.24     0.036 A 
HETATM   19  C21 BAX A1201       1.542  -5.366  14.005  1.00 29.02     0.032 A 
HETATM   20  C20 BAX A1201       1.217  -5.825  15.273  1.00 31.31     0.039 A 
HETATM   21  C19 BAX A1201       0.516  -6.991  15.373  1.00 29.38     0.076 A 
HETATM   22  C18 BAX A1201       0.177  -7.663  14.228  1.00 29.57     0.039 A 
HETATM   23  C17 BAX A1201       0.517  -7.198  12.961  1.00 29.00     0.032 A 
BRANCH  21  24
HETATM   24  O22 BAX A1201       0.050  -7.416  16.605  1.00 34.12    -0.311 OA
BRANCH  24  25
HETATM   25  C23 BAX A1201       0.844  -8.151  17.464  1.00 33.06     0.079 A 
HETATM   26  C24 BAX A1201       2.009  -8.844  17.108  1.00 28.70     0.054 A 
HETATM   27  C25 BAX A1201       2.688  -9.493  18.146  1.00 29.56     0.091 A 
HETATM   28  N26 BAX A1201       2.212  -9.510  19.406  1.00 25.85    -0.361 N 
HETATM   29  C27 BAX A1201       1.055  -8.904  19.741  1.00 30.06     0.103 A 
HETATM   30  H26 BAX A1201       2.742  -9.997  20.129  1.00  0.00     0.165 HD
HETATM   31  C28 BAX A1201       0.331  -8.190  18.762  1.00 28.65     0.072 A 
BRANCH  29  32
HETATM   32  C29 BAX A1201       0.570  -8.970  21.142  1.00 29.38     0.267 C 
HETATM   33  N30 BAX A1201       1.148  -9.839  21.992  1.00 37.04    -0.360 N 
HETATM   34  C31 BAX A1201       0.694  -9.969  23.365  1.00 38.90     0.149 C 
HETATM   35  H30 BAX A1201       1.921 -10.418  21.664  1.00  0.00     0.162 HD
HETATM   36  O32 BAX A1201      -0.351  -8.239  21.468  1.00 36.85    -0.266 OA
ENDBRANCH  29  32
ENDBRANCH  24  25
ENDBRANCH  21  24
ENDBRANCH  14  18
ENDBRANCH   2  12
TORSDOF 6
ENDMDL
