MODEL 6
REMARK VINA RESULT:     -10.5      5.694     12.683
REMARK  6 active torsions:
REMARK  status: ('A' for Active; 'I' for Inactive)
REMARK    1  A    between atoms: C2_2  and  N12_12 
REMARK       I    between atoms: C13_13  and  N12_12 
REMARK       I    between atoms: C13_13  and  N14_14 
REMARK    2  A    between atoms: C16_18  and  N14_14 
REMARK    3  A    between atoms: C19_21  and  O22_24 
REMARK    4  A    between atoms: O22_24  and  C23_25 
REMARK    5  A    between atoms: C27_29  and  C29_32 
REMARK       I    between atoms: N30_33  and  C29_32 
REMARK    6  A    between atoms: C6_6  and  C7_8 
ROOT
HETATM    1  C1  BAX A1201       2.659  -6.296  12.884  1.00 31.56     0.047 A 
HETATM    2  C2  BAX A1201       2.789  -6.314  11.503  1.00 31.50     0.037 A 
HETATM    3  C3  BAX A1201       1.780  -6.949  10.757  1.00 37.94     0.031 A 
HETATM    4  C4  BAX A1201       0.675  -7.578  11.340  1.00 35.50     0.027 A 
HETATM    5  C5  BAX A1201       0.555  -7.553  12.742  1.00 33.51     0.049 A 
HETATM    6  C6  BAX A1201       1.592  -6.876  13.525  1.00 27.50     0.071 A 
HETATM    7 CL11 BAX A1201      -0.810  -8.333  13.571  1.00 50.98    -0.083 Cl
ENDROOT
BRANCH   6   8
HETATM    8  C7  BAX A1201       1.510  -6.832  15.043  1.00 36.87     0.419 C 
HETATM    9  F8  BAX A1201       1.669  -8.012  15.562  1.00 39.65    -0.166 F 
HETATM   10  F9  BAX A1201       2.376  -6.049  15.575  1.00 37.84    -0.166 F 
HETATM   11  F10 BAX A1201       0.361  -6.336  15.378  1.00 36.35    -0.166 F 
ENDBRANCH   6   8
BRANCH   2  12
HETATM   12  N12 BAX A1201       3.896  -5.799  10.834  1.00 26.26    -0.309 N 
HETATM   13  C13 BAX A1201       3.973  -4.599  10.194  1.00 27.98     0.325 C 
HETATM   14  N14 BAX A1201       5.164  -4.365   9.611  1.00 25.84    -0.309 N 
HETATM   15  O15 BAX A1201       3.029  -3.844  10.157  1.00 28.48    -0.247 OA
HETATM   16  H14 BAX A1201       5.803  -5.154   9.515  1.00  0.00     0.170 HD
HETATM   17  H12 BAX A1201       4.735  -6.380  10.823  1.00  0.00     0.170 HD
BRANCH  14  18
HETATM   18  C16 BAX A1201       5.584  -3.156   9.136  1.00 26.24     0.036 A 
HETATM   19  C21 BAX A1201       6.100  -2.161   9.928  1.00 29.02     0.032 A 
HETATM   20  C20 BAX A1201       6.416  -0.886   9.480  1.00 31.31     0.039 A 
HETATM   21  C19 BAX A1201       6.217  -0.604   8.161  1.00 29.38     0.076 A 
HETATM   22  C18 BAX A1201       5.705  -1.575   7.342  1.00 29.57     0.039 A 
HETATM   23  C17 BAX A1201       5.383  -2.848   7.805  1.00 29.00     0.032 A 
BRANCH  21  24
HETATM   24  O22 BAX A1201       6.644   0.606   7.639  1.00 34.12    -0.311 OA
BRANCH  24  25
HETATM   25  C23 BAX A1201       6.465   0.922   6.307  1.00 33.06     0.079 A 
HETATM   26  C24 BAX A1201       7.398   0.711   5.283  1.00 28.70     0.054 A 
HETATM   27  C25 BAX A1201       6.996   1.068   3.991  1.00 29.56     0.091 A 
HETATM   28  N26 BAX A1201       5.803   1.648   3.752  1.00 25.85    -0.361 N 
HETATM   29  C27 BAX A1201       4.929   1.917   4.742  1.00 30.06     0.103 A 
HETATM   30  H26 BAX A1201       5.555   1.890   2.793  1.00  0.00     0.165 HD
HETATM   31  C28 BAX A1201       5.239   1.549   6.068  1.00 28.65     0.072 A 
BRANCH  29  32
HETATM   32  C29 BAX A1201       3.636   2.573   4.422  1.00 29.38     0.267 C 
HETATM   33  N30 BAX A1201       3.633   3.646   3.610  1.00 37.04    -0.360 N 
HETATM   34  C31 BAX A1201       2.402   4.346   3.287  1.00 38.90     0.149 C 
HETATM   35  H30 BAX A1201       4.513   3.975   3.214  1.00  0.00     0.162 HD
HETATM   36  O32 BAX A1201       2.621   2.118   4.922  1.00 36.85    -0.266 OA
ENDBRANCH  29  32
ENDBRANCH  24  25
ENDBRANCH  21  24
ENDBRANCH  14  18
ENDBRANCH   2  12
TORSDOF 6
ENDMDL
