MODEL 4
REMARK VINA RESULT:     -10.7      7.328     11.011
REMARK  6 active torsions:
REMARK  status: ('A' for Active; 'I' for Inactive)
REMARK    1  A    between atoms: C2_2  and  N12_12 
REMARK       I    between atoms: C13_13  and  N12_12 
REMARK       I    between atoms: C13_13  and  N14_14 
REMARK    2  A    between atoms: C16_18  and  N14_14 
REMARK    3  A    between atoms: C19_21  and  O22_24 
REMARK    4  A    between atoms: O22_24  and  C23_25 
REMARK    5  A    between atoms: C27_29  and  C29_32 
REMARK       I    between atoms: N30_33  and  C29_32 
REMARK    6  A    between atoms: C6_6  and  C7_8 
ROOT
HETATM    1  C1  BAX A1201       0.985   5.983   9.627  1.00 31.56     0.047 A 
HETATM    2  C2  BAX A1201       1.482   5.893   8.334  1.00 31.50     0.037 A 
HETATM    3  C3  BAX A1201       2.032   7.054   7.761  1.00 37.94     0.031 A 
HETATM    4  C4  BAX A1201       2.077   8.288   8.419  1.00 35.50     0.027 A 
HETATM    5  C5  BAX A1201       1.568   8.366   9.728  1.00 33.51     0.049 A 
HETATM    6  C6  BAX A1201       1.012   7.156  10.340  1.00 27.50     0.071 A 
HETATM    7 CL11 BAX A1201       1.576   9.892  10.638  1.00 50.98    -0.083 Cl
ENDROOT
BRANCH   6   8
HETATM    8  C7  BAX A1201       0.443   7.194  11.750  1.00 36.87     0.419 C 
HETATM    9  F8  BAX A1201       1.313   7.645  12.602  1.00 39.65    -0.166 F 
HETATM   10  F9  BAX A1201      -0.615   7.913  11.850  1.00 37.84    -0.166 F 
HETATM   11  F10 BAX A1201       0.065   5.998  12.072  1.00 36.35    -0.166 F 
ENDBRANCH   6   8
BRANCH   2  12
HETATM   12  N12 BAX A1201       1.399   4.737   7.563  1.00 26.26    -0.309 N 
HETATM   13  C13 BAX A1201       2.210   3.646   7.645  1.00 27.98     0.325 C 
HETATM   14  N14 BAX A1201       1.915   2.676   6.759  1.00 25.84    -0.309 N 
HETATM   15  O15 BAX A1201       3.118   3.595   8.443  1.00 28.48    -0.247 OA
HETATM   16  H14 BAX A1201       1.280   2.915   5.996  1.00  0.00     0.170 HD
HETATM   17  H12 BAX A1201       0.655   4.704   6.866  1.00  0.00     0.170 HD
BRANCH  14  18
HETATM   18  C16 BAX A1201       2.395   1.399   6.800  1.00 26.24     0.036 A 
HETATM   19  C21 BAX A1201       3.687   1.058   6.487  1.00 29.02     0.032 A 
HETATM   20  C20 BAX A1201       4.155  -0.246   6.404  1.00 31.31     0.039 A 
HETATM   21  C19 BAX A1201       3.281  -1.259   6.666  1.00 29.38     0.076 A 
HETATM   22  C18 BAX A1201       1.984  -0.952   6.983  1.00 29.57     0.039 A 
HETATM   23  C17 BAX A1201       1.523   0.359   7.054  1.00 29.00     0.032 A 
BRANCH  21  24
HETATM   24  O22 BAX A1201       3.733  -2.566   6.731  1.00 34.12    -0.311 OA
BRANCH  24  25
HETATM   25  C23 BAX A1201       4.436  -3.034   7.824  1.00 33.06     0.079 A 
HETATM   26  C24 BAX A1201       5.813  -2.883   8.037  1.00 28.70     0.054 A 
HETATM   27  C25 BAX A1201       6.317  -3.400   9.236  1.00 29.56     0.091 A 
HETATM   28  N26 BAX A1201       5.536  -4.068  10.107  1.00 25.85    -0.361 N 
HETATM   29  C27 BAX A1201       4.224  -4.277   9.875  1.00 30.06     0.103 A 
HETATM   30  H26 BAX A1201       5.950  -4.427  10.968  1.00  0.00     0.165 HD
HETATM   31  C28 BAX A1201       3.628  -3.750   8.710  1.00 28.65     0.072 A 
BRANCH  29  32
HETATM   32  C29 BAX A1201       3.416  -5.035  10.863  1.00 29.38     0.267 C 
HETATM   33  N30 BAX A1201       2.638  -6.044  10.431  1.00 37.04    -0.360 N 
HETATM   34  C31 BAX A1201       1.803  -6.800  11.348  1.00 38.90     0.149 C 
HETATM   35  H30 BAX A1201       2.634  -6.283   9.440  1.00  0.00     0.162 HD
HETATM   36  O32 BAX A1201       3.480  -4.702  12.035  1.00 36.85    -0.266 OA
ENDBRANCH  29  32
ENDBRANCH  24  25
ENDBRANCH  21  24
ENDBRANCH  14  18
ENDBRANCH   2  12
TORSDOF 6
ENDMDL
