MODEL 3
REMARK VINA RESULT:     -11.4      5.936     12.111
REMARK  6 active torsions:
REMARK  status: ('A' for Active; 'I' for Inactive)
REMARK    1  A    between atoms: C2_2  and  N12_12 
REMARK       I    between atoms: C13_13  and  N12_12 
REMARK       I    between atoms: C13_13  and  N14_14 
REMARK    2  A    between atoms: C16_18  and  N14_14 
REMARK    3  A    between atoms: C19_21  and  O22_24 
REMARK    4  A    between atoms: O22_24  and  C23_25 
REMARK    5  A    between atoms: C27_29  and  C29_32 
REMARK       I    between atoms: N30_33  and  C29_32 
REMARK    6  A    between atoms: C6_6  and  C7_8 
ROOT
HETATM    1  C1  BAX A1201       2.445  -5.301  12.806  1.00 31.56     0.047 A 
HETATM    2  C2  BAX A1201       3.009  -5.677  11.595  1.00 31.50     0.037 A 
HETATM    3  C3  BAX A1201       2.426  -6.757  10.907  1.00 37.94     0.031 A 
HETATM    4  C4  BAX A1201       1.329  -7.476  11.395  1.00 35.50     0.027 A 
HETATM    5  C5  BAX A1201       0.767  -7.084  12.624  1.00 33.51     0.049 A 
HETATM    6  C6  BAX A1201       1.357  -5.948  13.337  1.00 27.50     0.071 A 
HETATM    7 CL11 BAX A1201      -0.621  -7.943  13.326  1.00 50.98    -0.083 Cl
ENDROOT
BRANCH   6   8
HETATM    8  C7  BAX A1201       0.789  -5.495  14.674  1.00 36.87     0.419 C 
HETATM    9  F8  BAX A1201      -0.413  -5.021  14.543  1.00 39.65    -0.166 F 
HETATM   10  F9  BAX A1201       0.750  -6.430  15.551  1.00 37.84    -0.166 F 
HETATM   11  F10 BAX A1201       1.581  -4.600  15.174  1.00 36.35    -0.166 F 
ENDBRANCH   6   8
BRANCH   2  12
HETATM   12  N12 BAX A1201       4.156  -5.087  11.071  1.00 26.26    -0.309 N 
HETATM   13  C13 BAX A1201       4.207  -4.124  10.109  1.00 27.98     0.325 C 
HETATM   14  N14 BAX A1201       5.456  -3.749   9.775  1.00 25.84    -0.309 N 
HETATM   15  O15 BAX A1201       3.199  -3.681   9.608  1.00 28.48    -0.247 OA
HETATM   16  H14 BAX A1201       6.225  -4.338  10.096  1.00  0.00     0.170 HD
HETATM   17  H12 BAX A1201       5.048  -5.408  11.446  1.00  0.00     0.170 HD
BRANCH  14  18
HETATM   18  C16 BAX A1201       5.777  -2.643   9.042  1.00 26.24     0.036 A 
HETATM   19  C21 BAX A1201       6.390  -1.532   9.563  1.00 29.02     0.032 A 
HETATM   20  C20 BAX A1201       6.611  -0.356   8.860  1.00 31.31     0.039 A 
HETATM   21  C19 BAX A1201       6.207  -0.302   7.559  1.00 29.38     0.076 A 
HETATM   22  C18 BAX A1201       5.592  -1.395   7.007  1.00 29.57     0.039 A 
HETATM   23  C17 BAX A1201       5.368  -2.567   7.725  1.00 29.00     0.032 A 
BRANCH  21  24
HETATM   24  O22 BAX A1201       6.528   0.796   6.778  1.00 34.12    -0.311 OA
BRANCH  24  25
HETATM   25  C23 BAX A1201       5.552   1.547   6.152  1.00 33.06     0.079 A 
HETATM   26  C24 BAX A1201       5.377   1.669   4.767  1.00 28.70     0.054 A 
HETATM   27  C25 BAX A1201       4.297   2.452   4.344  1.00 29.56     0.091 A 
HETATM   28  N26 BAX A1201       3.509   3.110   5.217  1.00 25.85    -0.361 N 
HETATM   29  C27 BAX A1201       3.715   3.053   6.548  1.00 30.06     0.103 A 
HETATM   30  H26 BAX A1201       2.734   3.668   4.860  1.00  0.00     0.165 HD
HETATM   31  C28 BAX A1201       4.757   2.250   7.060  1.00 28.65     0.072 A 
BRANCH  29  32
HETATM   32  C29 BAX A1201       2.826   3.812   7.463  1.00 29.38     0.267 C 
HETATM   33  N30 BAX A1201       3.089   3.805   8.783  1.00 37.04    -0.360 N 
HETATM   34  C31 BAX A1201       2.235   4.505   9.726  1.00 38.90     0.149 C 
HETATM   35  H30 BAX A1201       3.904   3.299   9.127  1.00  0.00     0.162 HD
HETATM   36  O32 BAX A1201       1.876   4.406   6.979  1.00 36.85    -0.266 OA
ENDBRANCH  29  32
ENDBRANCH  24  25
ENDBRANCH  21  24
ENDBRANCH  14  18
ENDBRANCH   2  12
TORSDOF 6
ENDMDL
