MODEL 5
REMARK VINA RESULT:     -10.7      5.999     12.533
REMARK  6 active torsions:
REMARK  status: ('A' for Active; 'I' for Inactive)
REMARK    1  A    between atoms: C2_2  and  N12_12 
REMARK       I    between atoms: C13_13  and  N12_12 
REMARK       I    between atoms: C13_13  and  N14_14 
REMARK    2  A    between atoms: C16_18  and  N14_14 
REMARK    3  A    between atoms: C19_21  and  O22_24 
REMARK    4  A    between atoms: O22_24  and  C23_25 
REMARK    5  A    between atoms: C27_29  and  C29_32 
REMARK       I    between atoms: N30_33  and  C29_32 
REMARK    6  A    between atoms: C6_6  and  C7_8 
ROOT
HETATM    1  C1  BAX A1201       2.579  -5.142  12.554  1.00 31.56     0.047 A 
HETATM    2  C2  BAX A1201       3.006  -5.473  11.276  1.00 31.50     0.037 A 
HETATM    3  C3  BAX A1201       2.413  -6.585  10.653  1.00 37.94     0.031 A 
HETATM    4  C4  BAX A1201       1.439  -7.380  11.267  1.00 35.50     0.027 A 
HETATM    5  C5  BAX A1201       1.015  -7.035  12.563  1.00 33.51     0.049 A 
HETATM    6  C6  BAX A1201       1.614  -5.865  13.211  1.00 27.50     0.071 A 
HETATM    7 CL11 BAX A1201      -0.210  -7.991  13.425  1.00 50.98    -0.083 Cl
ENDROOT
BRANCH   6   8
HETATM    8  C7  BAX A1201       1.194  -5.459  14.616  1.00 36.87     0.419 C 
HETATM    9  F8  BAX A1201       1.477  -6.385  15.482  1.00 39.65    -0.166 F 
HETATM   10  F9  BAX A1201       1.741  -4.369  15.013  1.00 37.84    -0.166 F 
HETATM   11  F10 BAX A1201      -0.077  -5.212  14.608  1.00 36.35    -0.166 F 
ENDBRANCH   6   8
BRANCH   2  12
HETATM   12  N12 BAX A1201       4.033  -4.802  10.617  1.00 26.26    -0.309 N 
HETATM   13  C13 BAX A1201       3.895  -3.830   9.674  1.00 27.98     0.325 C 
HETATM   14  N14 BAX A1201       5.062  -3.369   9.186  1.00 25.84    -0.309 N 
HETATM   15  O15 BAX A1201       2.803  -3.451   9.315  1.00 28.48    -0.247 OA
HETATM   16  H14 BAX A1201       5.903  -3.908   9.394  1.00  0.00     0.170 HD
HETATM   17  H12 BAX A1201       4.986  -5.066  10.868  1.00  0.00     0.170 HD
BRANCH  14  18
HETATM   18  C16 BAX A1201       5.212  -2.238   8.437  1.00 26.24     0.036 A 
HETATM   19  C21 BAX A1201       5.812  -1.091   8.894  1.00 29.02     0.032 A 
HETATM   20  C20 BAX A1201       5.861   0.102   8.188  1.00 31.31     0.039 A 
HETATM   21  C19 BAX A1201       5.290   0.139   6.951  1.00 29.38     0.076 A 
HETATM   22  C18 BAX A1201       4.684  -0.989   6.464  1.00 29.57     0.039 A 
HETATM   23  C17 BAX A1201       4.633  -2.179   7.185  1.00 29.00     0.032 A 
BRANCH  21  24
HETATM   24  O22 BAX A1201       5.434   1.263   6.154  1.00 34.12    -0.311 OA
BRANCH  24  25
HETATM   25  C23 BAX A1201       4.460   2.241   6.102  1.00 33.06     0.079 A 
HETATM   26  C24 BAX A1201       4.494   3.464   6.784  1.00 28.70     0.054 A 
HETATM   27  C25 BAX A1201       3.419   4.332   6.559  1.00 29.56     0.091 A 
HETATM   28  N26 BAX A1201       2.373   3.983   5.783  1.00 25.85    -0.361 N 
HETATM   29  C27 BAX A1201       2.302   2.779   5.179  1.00 30.06     0.103 A 
HETATM   30  H26 BAX A1201       1.613   4.650   5.648  1.00  0.00     0.165 HD
HETATM   31  C28 BAX A1201       3.366   1.863   5.320  1.00 28.65     0.072 A 
BRANCH  29  32
HETATM   32  C29 BAX A1201       1.118   2.443   4.350  1.00 29.38     0.267 C 
HETATM   33  N30 BAX A1201       0.640   1.185   4.376  1.00 37.04    -0.360 N 
HETATM   34  C31 BAX A1201      -0.496   0.792   3.562  1.00 38.90     0.149 C 
HETATM   35  H30 BAX A1201       1.084   0.495   4.981  1.00  0.00     0.162 HD
HETATM   36  O32 BAX A1201       0.630   3.323   3.661  1.00 36.85    -0.266 OA
ENDBRANCH  29  32
ENDBRANCH  24  25
ENDBRANCH  21  24
ENDBRANCH  14  18
ENDBRANCH   2  12
TORSDOF 6
ENDMDL
