MODEL 1
REMARK VINA RESULT:     -12.8      0.000      0.000
REMARK  6 active torsions:
REMARK  status: ('A' for Active; 'I' for Inactive)
REMARK    1  A    between atoms: C2_2  and  N12_12 
REMARK       I    between atoms: C13_13  and  N12_12 
REMARK       I    between atoms: C13_13  and  N14_14 
REMARK    2  A    between atoms: C16_18  and  N14_14 
REMARK    3  A    between atoms: C19_21  and  O22_24 
REMARK    4  A    between atoms: O22_24  and  C23_25 
REMARK    5  A    between atoms: C27_29  and  C29_32 
REMARK       I    between atoms: N30_33  and  C29_32 
REMARK    6  A    between atoms: C6_6  and  C7_8 
ROOT
HETATM    1  C1  BAX A1201       5.391  -3.716   9.741  1.00 31.56     0.047 A 
HETATM    2  C2  BAX A1201       4.124  -3.814   9.184  1.00 31.50     0.037 A 
HETATM    3  C3  BAX A1201       3.851  -3.048   8.036  1.00 37.94     0.031 A 
HETATM    4  C4  BAX A1201       4.782  -2.183   7.451  1.00 35.50     0.027 A 
HETATM    5  C5  BAX A1201       6.063  -2.092   8.026  1.00 33.51     0.049 A 
HETATM    6  C6  BAX A1201       6.361  -2.902   9.211  1.00 27.50     0.071 A 
HETATM    7 CL11 BAX A1201       7.307  -1.014   7.357  1.00 50.98    -0.083 Cl
ENDROOT
BRANCH   6   8
HETATM    8  C7  BAX A1201       7.729  -2.829   9.873  1.00 36.87     0.419 C 
HETATM    9  F8  BAX A1201       8.668  -3.222   9.066  1.00 39.65    -0.166 F 
HETATM   10  F9  BAX A1201       8.031  -1.652  10.285  1.00 37.84    -0.166 F 
HETATM   11  F10 BAX A1201       7.707  -3.562  10.941  1.00 36.35    -0.166 F 
ENDBRANCH   6   8
BRANCH   2  12
HETATM   12  N12 BAX A1201       3.100  -4.573   9.744  1.00 26.26    -0.309 N 
HETATM   13  C13 BAX A1201       3.021  -5.004  11.034  1.00 27.98     0.325 C 
HETATM   14  N14 BAX A1201       1.927  -5.743  11.298  1.00 25.84    -0.309 N 
HETATM   15  O15 BAX A1201       3.886  -4.744  11.838  1.00 28.48    -0.247 OA
HETATM   16  H14 BAX A1201       1.387  -6.083  10.502  1.00  0.00     0.170 HD
HETATM   17  H12 BAX A1201       2.331  -4.832   9.126  1.00  0.00     0.170 HD
BRANCH  14  18
HETATM   18  C16 BAX A1201       1.483  -6.074  12.546  1.00 26.24     0.036 A 
HETATM   19  C21 BAX A1201       1.898  -5.450  13.696  1.00 29.02     0.032 A 
HETATM   20  C20 BAX A1201       1.551  -5.856  14.976  1.00 31.31     0.039 A 
HETATM   21  C19 BAX A1201       0.728  -6.935  15.106  1.00 29.38     0.076 A 
HETATM   22  C18 BAX A1201       0.295  -7.580  13.977  1.00 29.57     0.039 A 
HETATM   23  C17 BAX A1201       0.657  -7.170  12.697  1.00 29.00     0.032 A 
BRANCH  21  24
HETATM   24  O22 BAX A1201       0.244  -7.293  16.353  1.00 34.12    -0.311 OA
BRANCH  24  25
HETATM   25  C23 BAX A1201       0.971  -8.097  17.207  1.00 33.06     0.079 A 
HETATM   26  C24 BAX A1201       2.084  -8.871  16.853  1.00 28.70     0.054 A 
HETATM   27  C25 BAX A1201       2.701  -9.585  17.887  1.00 29.56     0.091 A 
HETATM   28  N26 BAX A1201       2.210  -9.585  19.142  1.00 25.85    -0.361 N 
HETATM   29  C27 BAX A1201       1.099  -8.899  19.474  1.00 30.06     0.103 A 
HETATM   30  H26 BAX A1201       2.695 -10.121  19.862  1.00  0.00     0.165 HD
HETATM   31  C28 BAX A1201       0.442  -8.118  18.500  1.00 28.65     0.072 A 
BRANCH  29  32
HETATM   32  C29 BAX A1201       0.594  -8.950  20.870  1.00 29.38     0.267 C 
HETATM   33  N30 BAX A1201       1.117  -9.853  21.719  1.00 37.04    -0.360 N 
HETATM   34  C31 BAX A1201       0.641  -9.969  23.086  1.00 38.90     0.149 C 
HETATM   35  H30 BAX A1201       1.863 -10.469  21.396  1.00  0.00     0.162 HD
HETATM   36  O32 BAX A1201      -0.291  -8.173  21.190  1.00 36.85    -0.266 OA
ENDBRANCH  29  32
ENDBRANCH  24  25
ENDBRANCH  21  24
ENDBRANCH  14  18
ENDBRANCH   2  12
TORSDOF 6
ENDMDL
